@<TRIPOS>MOLECULE
MOL
  183   181     1     0     0
SMALL
resp


@<TRIPOS>ATOM
      1 C1         -0.3930    1.4700    6.2250 c3        1 MOL     -0.371326
      2 C2         -0.8510    1.5780    4.7860 c         1 MOL      0.784078
      3 O1         -0.1980    2.2190    4.0170 o         1 MOL     -0.577332
      4 H1         -0.7150    0.5140    6.6380 hc        1 MOL      0.084741
      5 H2          0.6940    1.5360    6.2680 hc        1 MOL      0.084741
      6 H3         -0.8290    2.2820    6.8080 hc        1 MOL      0.084741
      7 N1         -2.0020    0.9640    4.3640 n         1 MOL     -0.638144
      8 C3         -2.6990    1.0500    3.0500 c3        1 MOL      0.448745
      9 C4         -3.2850    2.3860    2.7140 c         1 MOL      0.224379
     10 O2         -4.2550    2.8190    3.3500 o         1 MOL     -0.551539
     11 C5         -3.7620   -0.0780    3.0710 c3        1 MOL     -0.351636
     12 C6         -4.5430   -0.0970    1.7460 c         1 MOL      0.933240
     13 O3         -5.6740   -0.7110    1.7360 o         1 MOL     -0.733956
     14 O4         -4.0380    0.3790    0.6870 o         1 MOL     -0.733956
     15 H4         -2.5190    0.4730    5.0680 hn        1 MOL      0.278720
     16 H5         -1.9510    0.7550    2.3190 h1        1 MOL     -0.054928
     17 H6         -4.5370    0.1940    3.7890 hc        1 MOL      0.057709
     18 H7         -3.3700   -1.0660    3.2690 hc        1 MOL      0.057709
     19 N2         -2.5950    3.0560    1.8230 n         1 MOL     -0.030973
     20 C7         -2.7420    4.5070    1.4560 c3        1 MOL      0.124149
     21 C8         -3.8050    4.6490    0.4220 c         1 MOL      0.343653
     22 O5         -4.4700    5.6860    0.4250 o         1 MOL     -0.582958
     23 C9         -1.4120    5.1620    0.9980 c3        1 MOL      0.228570
     24 C10        -0.2440    4.9970    1.9470 c3        1 MOL      0.050168
     25 C11        -1.5780    6.6820    0.7670 c3        1 MOL     -0.316886
     26 C12        -0.2960    5.6310    3.3510 c3        1 MOL     -0.309754
     27 H8         -1.8330    2.5830    1.3520 hn        1 MOL      0.088834
     28 H9         -3.1000    5.0890    2.3060 h1        1 MOL      0.017429
     29 H10        -1.1260    4.6390    0.0820 hc        1 MOL     -0.035102
     30 H11         0.6170    5.4010    1.4240 hc        1 MOL      0.016330
     31 H12        -0.0190    3.9330    2.0800 hc        1 MOL      0.016330
     32 H13        -2.1970    6.7860   -0.1180 hc        1 MOL      0.067819
     33 H14        -2.0950    7.0910    1.6410 hc        1 MOL      0.067819
     34 H15        -0.6320    7.1840    0.5770 hc        1 MOL      0.067819
     35 H16        -0.6420    6.6590    3.1980 hc        1 MOL      0.063195
     36 H17        -0.9050    4.9960    3.9980 hc        1 MOL      0.063195
     37 H18         0.7310    5.7140    3.6940 hc        1 MOL      0.063195
     38 N3         -3.9310    3.7030   -0.5230 n         1 MOL     -0.054051
     39 C13        -4.8380    3.8130   -1.6910 c3        1 MOL     -0.169096
     40 C14        -6.0660    2.9310   -1.5420 c         1 MOL      0.355105
     41 O6         -6.8450    2.7220   -2.4810 o         1 MOL     -0.499071
     42 C15        -4.2080    3.8180   -3.0220 c3        1 MOL     -0.001328
     43 C16        -2.9230    2.8960   -3.1350 c         1 MOL      0.606086
     44 O7         -1.9760    3.3160   -3.8510 o         1 MOL     -0.666138
     45 O8         -2.8240    1.7700   -2.5450 o         1 MOL     -0.666138
     46 H19        -3.3390    2.8870   -0.4780 hn        1 MOL      0.101003
     47 H20        -5.3030    4.7920   -1.8440 h1        1 MOL      0.140620
     48 H21        -3.9090    4.8350   -3.2940 hc        1 MOL      0.011524
     49 H22        -4.8820    3.5360   -3.8330 hc        1 MOL      0.011524
     50 N4         -6.2750    2.4490   -0.3430 n         1 MOL     -0.206207
     51 C17        -7.5030    1.7110    0.0990 c3        1 MOL     -0.073761
     52 C18        -7.9520    0.6100   -0.7760 c         1 MOL      0.434465
     53 O9         -9.0900    0.4720   -1.2180 o         1 MOL     -0.581071
     54 H23        -5.6110    2.6470    0.3900 hn        1 MOL      0.208681
     55 H24        -8.3310    2.4110    0.2180 h1        1 MOL      0.067440
     56 H25        -7.1730    1.3830    1.0770 h1        1 MOL      0.067440
     57 N5         -7.0380   -0.3170   -1.0710 n         1 MOL     -0.034075
     58 C19        -7.3310   -1.5360   -1.8040 c3        1 MOL      0.039673
     59 C20        -7.5190   -2.8170   -0.9670 c         1 MOL      0.403193
     60 O10        -8.3700   -3.6840   -1.2800 o         1 MOL     -0.577368
     61 C21        -6.2790   -1.7530   -2.8620 c3        1 MOL     -0.066810
     62 C22        -4.8280   -1.5150   -2.4220 c         1 MOL      0.635992
     63 O11        -4.0050   -1.1880   -3.3360 o         1 MOL     -0.688372
     64 O12        -4.5600   -1.6800   -1.2320 o         1 MOL     -0.688372
     65 H26        -6.1820   -0.3730   -0.5330 hn        1 MOL     -0.002939
     66 H27        -8.2400   -1.4960   -2.4020 h1        1 MOL      0.074591
     67 H28        -6.4630   -1.0190   -3.6550 hc        1 MOL      0.007980
     68 H29        -6.4280   -2.7310   -3.3320 hc        1 MOL      0.007980
     69 N6         -6.9620   -2.8560    0.2620 n         1 MOL     -0.229696
     70 C23        -6.9490   -4.1020    1.0540 c3        1 MOL      0.013643
     71 C24        -5.5720   -4.7990    1.1460 c         1 MOL      0.451301
     72 O13        -5.4890   -5.8440    1.7220 o         1 MOL     -0.593997
     73 H30        -6.3960   -2.1080    0.6310 hn        1 MOL      0.214555
     74 H31        -7.7660   -4.7930    0.8480 h1        1 MOL      0.043130
     75 H32        -7.1940   -3.7860    2.0750 h1        1 MOL      0.043130
     76 N7         -4.5660   -4.1450    0.6500 n         1 MOL     -0.101259
     77 C25        -3.1400   -4.5650    0.7980 c3        1 MOL     -0.046976
     78 C26        -2.0860   -3.4170    0.9560 c         1 MOL      0.688128
     79 O14        -2.5300   -2.2590    0.8350 o         1 MOL     -0.647550
     80 C27        -2.8320   -5.4120   -0.5090 c3        1 MOL     -0.078667
     81 C28        -3.1060   -4.6860   -1.8620 c3        1 MOL     -0.160588
     82 C29        -2.0630   -3.7460   -2.5330 c         1 MOL      0.464986
     83 N8         -1.9130   -3.8400   -3.8030 n         1 MOL     -0.605229
     84 O15        -1.5930   -2.7770   -1.9540 o         1 MOL     -0.491529
     85 H33        -4.6910   -3.2930    0.1230 hn        1 MOL      0.140747
     86 H34        -3.0530   -5.1900    1.6880 h1        1 MOL      0.070825
     87 H35        -3.3290   -6.3820   -0.5190 hc        1 MOL      0.026006
     88 H36        -1.8010   -5.7680   -0.4580 hc        1 MOL      0.026006
     89 H37        -4.0790   -4.1940   -1.8260 hc        1 MOL      0.069832
     90 H38        -3.2980   -5.4870   -2.5670 hc        1 MOL      0.069832
     91 H39        -2.4950   -4.4660   -4.3420 hn        1 MOL      0.320557
     92 H40        -1.0100   -3.5350   -4.1450 hn        1 MOL      0.320557
     93 N9         -0.8710   -3.7500    1.3960 n         1 MOL     -0.525161
     94 C30         0.2150   -2.7950    1.7800 c3        1 MOL      0.048024
     95 C31         1.3840   -3.2840    0.9230 c         1 MOL      0.379225
     96 O16         2.0090   -4.3230    1.2140 o         1 MOL     -0.557628
     97 C32         0.5710   -3.0180    3.2980 c3        1 MOL      0.160286
     98 C33         1.9340   -2.3470    3.7070 c3        1 MOL     -0.060935
     99 C34        -0.5550   -2.6260    4.1580 c3        1 MOL     -0.060935
    100 H41        -0.7010   -4.7380    1.3290 hn        1 MOL      0.298049
    101 H42        -0.0400   -1.7610    1.5270 h1        1 MOL      0.140489
    102 H43         0.7580   -4.0740    3.4890 hc        1 MOL     -0.007219
    103 H44         2.0820   -2.4400    4.7880 hc        1 MOL     -0.004430
    104 H45         2.8150   -2.8610    3.3250 hc        1 MOL     -0.004430
    105 H46         2.1460   -1.3180    3.4070 hc        1 MOL     -0.004430
    106 H47        -0.4510   -2.9900    5.1770 hc        1 MOL     -0.004430
    107 H48        -0.7310   -1.5500    4.1780 hc        1 MOL     -0.004430
    108 H49        -1.4270   -3.1920    3.8190 hc        1 MOL     -0.004430
    109 N10         1.7760   -2.5170   -0.0840 n         1 MOL     -0.247264
    110 C35         2.9540   -2.6880   -0.9260 c3        1 MOL      0.291030
    111 C36         4.2850   -2.1750   -0.3570 c         1 MOL      0.367113
    112 O17         4.2550   -1.5030    0.7080 o         1 MOL     -0.357061
    113 C37         2.5950   -2.2870   -2.4140 c3        1 MOL     -0.219461
    114 C38         3.0990   -0.8820   -2.8650 c         1 MOL      0.651366
    115 N11         2.2550    0.1450   -2.8550 n         1 MOL     -0.878383
    116 O18         4.2900   -0.5940   -3.0670 o         1 MOL     -0.591825
    117 H50         1.2920   -1.6350   -0.1370 hn        1 MOL      0.077772
    118 H51         3.1150   -3.7690   -0.8480 h1        1 MOL     -0.000776
    119 H52         1.5290   -2.4520   -2.6090 hc        1 MOL      0.049487
    120 H53         3.0850   -2.9530   -3.1250 hc        1 MOL      0.049487
    121 H54         1.2790   -0.0990   -2.7590 hn        1 MOL      0.441250
    122 H55         2.5160    1.0390   -3.2170 hn        1 MOL      0.441250
    123 N12         5.4090   -2.4420   -1.0110 n         1 MOL     -0.406712
    124 C39         6.6990   -2.0310   -0.4820 c3        1 MOL      0.116201
    125 C40         6.9010   -0.4950   -0.3590 c         1 MOL      0.657685
    126 O19         7.3410    0.0860    0.6420 o         1 MOL     -0.532171
    127 C41         7.8160   -2.8600   -1.2490 c3        1 MOL     -0.138089
    128 C42         9.1910   -2.3680   -0.8460 ca        1 MOL      0.018885
    129 C43         9.5940   -2.6510    0.4690 ca        1 MOL     -0.181782
    130 C44        10.0200   -1.5220   -1.5910 ca        1 MOL     -0.181782
    131 C45        10.9050   -2.2600    0.9140 ca        1 MOL     -0.270002
    132 C46        11.2110   -0.9660   -1.1290 ca        1 MOL     -0.270002
    133 C47        11.7110   -1.3840    0.1310 ca        1 MOL      0.386304
    134 O20        12.9240   -1.0510    0.5500 oh        1 MOL     -0.515365
    135 H56         5.3850   -3.0690   -1.7960 hn        1 MOL      0.249396
    136 H57         6.6320   -2.4110    0.5440 h1        1 MOL      0.048317
    137 H58         7.8200   -2.7230   -2.3250 hc        1 MOL      0.062453
    138 H59         7.7120   -3.9140   -0.9690 hc        1 MOL      0.062453
    139 H60         9.0160   -3.3850    1.0090 ha        1 MOL      0.142447
    140 H61         9.5810   -1.0670   -2.4670 ha        1 MOL      0.142447
    141 H62        11.3360   -2.6300    1.8350 ha        1 MOL      0.143876
    142 H63        11.7870   -0.1890   -1.6100 ha        1 MOL      0.143876
    143 H64        13.3830   -0.5340   -0.1270 ho        1 MOL      0.371457
    144 N13         6.3580    0.2680   -1.3380 n         1 MOL     -0.541620
    145 C48         6.2710    1.7060   -1.2090 c3        1 MOL      0.099830
    146 C49         5.3970    2.2050   -0.0300 c         1 MOL      0.184142
    147 O21         5.7040    3.2440    0.5820 o         1 MOL     -0.530837
    148 C50         5.7000    2.2030   -2.6270 c3        1 MOL     -0.090545
    149 C51         5.8810    3.7060   -2.8030 c3        1 MOL     -0.264222
    150 C52         5.1960    4.1190   -4.0710 c         1 MOL      0.778150
    151 O22         5.9700    4.2400   -5.0520 o         1 MOL     -0.764047
    152 O23         4.0150    4.3890   -4.0860 o         1 MOL     -0.764047
    153 H65         5.7890   -0.1600   -2.0450 hn        1 MOL      0.269002
    154 H66         7.2860    2.0560   -1.0500 h1        1 MOL      0.101930
    155 H67         4.6160    2.1170   -2.6420 hc        1 MOL      0.065069
    156 H68         6.1450    1.6160   -3.4270 hc        1 MOL      0.065069
    157 H69         6.9620    3.8260   -2.7730 hc        1 MOL      0.044565
    158 H70         5.4930    4.2930   -1.9720 hc        1 MOL      0.044565
    159 N14         4.4690    1.4750    0.5030 n         1 MOL      0.026241
    160 C53         3.6390    1.7210    1.6920 c3        1 MOL      0.011579
    161 C54         4.3630    1.3080    2.9450 c         1 MOL      0.444810
    162 O24         4.2670    2.0290    3.9230 o         1 MOL     -0.588099
    163 C55         2.2460    1.0670    1.4080 c3        1 MOL      0.196172
    164 C56         1.4180    1.8410    0.4340 c3        1 MOL      0.113940
    165 C57         0.1620    1.0490    0.0580 c         1 MOL      0.666781
    166 O25        -0.8920    1.7210   -0.1040 o         1 MOL     -0.701449
    167 O26         0.1780   -0.1770   -0.1810 o         1 MOL     -0.701449
    168 H71         4.3000    0.6080    0.0140 hn        1 MOL      0.112286
    169 H72         3.4530    2.7890    1.7460 h1        1 MOL      0.081524
    170 H73         1.6610    1.1380    2.3270 hc        1 MOL     -0.078753
    171 H74         2.3070    0.0430    1.0490 hc        1 MOL     -0.078753
    172 H75         1.9360    2.0980   -0.4890 hc        1 MOL     -0.031559
    173 H76         1.2100    2.8240    0.8600 hc        1 MOL     -0.031559
    174 N15         5.1270    0.2280    2.8990 n         1 MOL      0.018691
    175 C58         6.0870   -0.1520    3.9200 c3        1 MOL     -0.201520
    176 H77         5.7830   -1.0970    4.3690 h1        1 MOL      0.068384
    177 H78         7.0720   -0.2640    3.4680 h1        1 MOL      0.068384
    178 H79         6.1250    0.6200    4.6890 h1        1 MOL      0.068384
    179 H80         4.9530   -0.3370    2.0850 hn        1 MOL      0.018296
    180 Ca1        -2.3430   -0.2890   -1.1160 Ca        1 MOL      1.704273
    181 O27        -0.7270   -0.1130   -3.5640 oh        1 MOL     -0.846879
    182 H81        -0.7190   -0.5630   -4.4070 ho        1 MOL      0.408361
    183 H82        -0.5560    0.8020   -3.7820 ho        1 MOL      0.408361
@<TRIPOS>BOND
     1    1    2 1   
     2    1    4 1   
     3    1    5 1   
     4    1    6 1   
     5    2    3 2   
     6    2    7 1   
     7    7    8 1   
     8    7   15 1   
     9    8    9 1   
    10    8   11 1   
    11    8   16 1   
    12    9   10 2   
    13    9   19 1   
    14   11   12 1   
    15   11   17 1   
    16   11   18 1   
    17   12   13 1   
    18   12   14 1   
    19   19   20 1   
    20   19   27 1   
    21   20   21 1   
    22   20   23 1   
    23   20   28 1   
    24   21   22 2   
    25   21   38 1   
    26   23   24 1   
    27   23   25 1   
    28   23   29 1   
    29   24   26 1   
    30   24   30 1   
    31   24   31 1   
    32   25   32 1   
    33   25   33 1   
    34   25   34 1   
    35   26   35 1   
    36   26   36 1   
    37   26   37 1   
    38   38   39 1   
    39   38   46 1   
    40   39   40 1   
    41   39   42 1   
    42   39   47 1   
    43   40   41 2   
    44   40   50 1   
    45   42   43 1   
    46   42   48 1   
    47   42   49 1   
    48   43   44 1   
    49   43   45 1   
    50   50   51 1   
    51   50   54 1   
    52   51   52 1   
    53   51   55 1   
    54   51   56 1   
    55   52   53 2   
    56   52   57 1   
    57   57   58 1   
    58   57   65 1   
    59   58   59 1   
    60   58   61 1   
    61   58   66 1   
    62   59   60 2   
    63   59   69 1   
    64   61   62 1   
    65   61   67 1   
    66   61   68 1   
    67   62   63 1   
    68   62   64 1   
    69   69   70 1   
    70   69   73 1   
    71   70   71 1   
    72   70   74 1   
    73   70   75 1   
    74   71   72 2   
    75   71   76 1   
    76   76   77 1   
    77   76   85 1   
    78   77   78 1   
    79   77   80 1   
    80   77   86 1   
    81   78   79 2   
    82   78   93 1   
    83   80   81 1   
    84   80   87 1   
    85   80   88 1   
    86   81   82 1   
    87   81   89 1   
    88   81   90 1   
    89   82   83 1   
    90   82   84 2   
    91   83   91 1   
    92   83   92 1   
    93   93   94 1   
    94   93  100 1   
    95   94   95 1   
    96   94   97 1   
    97   94  101 1   
    98   95   96 2   
    99   95  109 1   
   100   97   98 1   
   101   97   99 1   
   102   97  102 1   
   103   98  103 1   
   104   98  104 1   
   105   98  105 1   
   106   99  106 1   
   107   99  107 1   
   108   99  108 1   
   109  109  110 1   
   110  109  117 1   
   111  110  111 1   
   112  110  113 1   
   113  110  118 1   
   114  111  112 2   
   115  111  123 1   
   116  113  114 1   
   117  113  119 1   
   118  113  120 1   
   119  114  115 1   
   120  114  116 2   
   121  115  121 1   
   122  115  122 1   
   123  123  124 1   
   124  123  135 1   
   125  124  125 1   
   126  124  127 1   
   127  124  136 1   
   128  125  126 2   
   129  125  144 1   
   130  127  128 1   
   131  127  137 1   
   132  127  138 1   
   133  128  129 ar  
   134  128  130 ar  
   135  129  131 ar  
   136  129  139 1   
   137  130  132 ar  
   138  130  140 1   
   139  131  133 ar  
   140  131  141 1   
   141  132  133 ar  
   142  132  142 1   
   143  133  134 1   
   144  134  143 1   
   145  144  145 1   
   146  144  153 1   
   147  145  146 1   
   148  145  148 1   
   149  145  154 1   
   150  146  147 2   
   151  146  159 1   
   152  148  149 1   
   153  148  155 1   
   154  148  156 1   
   155  149  150 1   
   156  149  157 1   
   157  149  158 1   
   158  150  151 1   
   159  150  152 1   
   160  159  160 1   
   161  159  168 1   
   162  160  161 1   
   163  160  163 1   
   164  160  169 1   
   165  161  162 2   
   166  161  174 1   
   167  163  164 1   
   168  163  170 1   
   169  163  171 1   
   170  164  165 1   
   171  164  172 1   
   172  164  173 1   
   173  165  166 1   
   174  165  167 1   
   175  174  175 1   
   176  174  179 1   
   177  175  176 1   
   178  175  177 1   
   179  175  178 1   
   180  181  182 1   
   181  181  183 1   
@<TRIPOS>SUBSTRUCTURE
     1 MOL         1 TEMP              0 ****  ****    0 ROOT
