@<TRIPOS>MOLECULE
MOL
  189   185     1     0     0
SMALL
resp


@<TRIPOS>ATOM
      1 C1         -0.5330    3.0550    5.2930 c3        1 MOL     -0.316301
      2 C2         -0.9890    2.5810    3.9170 c         1 MOL      0.678734
      3 O1         -0.1680    2.5520    2.9950 o         1 MOL     -0.574036
      4 H1         -1.2810    3.7270    5.7120 hc        1 MOL      0.078591
      5 H2         -0.4090    2.1940    5.9510 hc        1 MOL      0.078591
      6 H3          0.4160    3.5810    5.2000 hc        1 MOL      0.078591
      7 N1         -2.2350    2.2200    3.7220 n         1 MOL     -0.609203
      8 C3         -2.7070    1.7880    2.3730 c3        1 MOL      0.291160
      9 C4         -2.9220    3.1310    1.5280 c         1 MOL      0.360131
     10 O2         -3.9590    3.8110    1.6170 o         1 MOL     -0.527266
     11 C5         -4.0220    1.0720    2.5420 c3        1 MOL     -0.124685
     12 C6         -4.5320    0.5140    1.1870 c         1 MOL      0.662659
     13 O3         -3.7570    0.5540    0.1870 o         1 MOL     -0.606518
     14 O4         -5.6800    0.0320    1.1940 o         1 MOL     -0.606518
     15 H4         -2.7520    2.1350    4.5860 hn        1 MOL      0.328589
     16 H5         -2.0340    1.1340    1.8180 h1        1 MOL     -0.004612
     17 H6         -4.8180    1.6890    2.9450 hc        1 MOL      0.025808
     18 H7         -3.9050    0.2920    3.3000 hc        1 MOL      0.025808
     19 N2         -1.9320    3.5180    0.6970 n         1 MOL     -0.290847
     20 C7         -1.9490    4.7360   -0.2000 c3        1 MOL      0.038920
     21 C8         -2.7480    4.5530   -1.4940 c         1 MOL      0.416932
     22 O5         -2.9830    5.6230   -2.0760 o         1 MOL     -0.570746
     23 C9         -0.5520    5.2120   -0.5370 c3        1 MOL     -0.000408
     24 C10         0.4000    5.4120    0.6330 c3        1 MOL     -0.011639
     25 C11         0.0670    6.5790    1.5750 c3        1 MOL     -0.089921
     26 C12        -0.0690    7.9810    0.9710 c3        1 MOL      0.162985
     27 N3         -0.4530    9.0190    2.0370 n4        1 MOL     -0.361116
     28 H8         -1.0870    2.9680    0.6560 hn        1 MOL      0.297559
     29 H9         -2.4990    5.5180    0.3190 h1        1 MOL      0.078649
     30 H10        -0.6720    6.1270   -1.1240 hc        1 MOL      0.016236
     31 H11        -0.0290    4.5210   -1.2060 hc        1 MOL      0.016236
     32 H12         1.3590    5.7110    0.2270 hc        1 MOL      0.057113
     33 H13         0.4610    4.5220    1.2500 hc        1 MOL      0.057113
     34 H14         0.9260    6.7560    2.2260 hc        1 MOL      0.013582
     35 H15        -0.8180    6.3940    2.1700 hc        1 MOL      0.013582
     36 H16        -0.8540    7.8540    0.2290 hx        1 MOL      0.046327
     37 H17         0.8280    8.2200    0.3940 hx        1 MOL      0.046327
     38 H18        -0.2380    9.9940    1.8830 hn        1 MOL      0.320560
     39 H19        -1.4190    8.9760    2.3160 hn        1 MOL      0.320560
     40 H20         0.0480    8.7630    2.8760 hn        1 MOL      0.320560
     41 N4         -3.1630    3.3470   -1.9360 n         1 MOL     -0.069165
     42 C13        -4.0800    3.2110   -3.1170 c3        1 MOL      0.191688
     43 C14        -5.4760    2.7070   -2.7430 c         1 MOL      0.313842
     44 O6         -6.4320    2.9640   -3.4740 o         1 MOL     -0.517583
     45 C15        -3.5040    2.4480   -4.2970 c3        1 MOL     -0.315133
     46 C16        -2.8650    1.1390   -3.8740 c         1 MOL      0.859414
     47 O7         -2.0540    0.6070   -4.7080 o         1 MOL     -0.723431
     48 O8         -3.1330    0.6420   -2.8130 o         1 MOL     -0.723431
     49 H21        -3.0480    2.5000   -1.4040 hn        1 MOL     -0.127592
     50 H22        -4.2640    4.1860   -3.5760 h1        1 MOL      0.046089
     51 H23        -2.6700    3.0470   -4.6540 hc        1 MOL      0.078019
     52 H24        -4.2390    2.2580   -5.0700 hc        1 MOL      0.078019
     53 N5         -5.6060    2.0490   -1.6160 n         1 MOL     -0.180550
     54 C17        -6.8950    1.5240   -1.1890 c3        1 MOL     -0.079740
     55 C18        -7.2360    0.1840   -1.8400 c         1 MOL      0.539819
     56 O9         -8.3700   -0.0830   -2.2400 o         1 MOL     -0.597149
     57 H25        -4.8090    1.8340   -1.0340 hn        1 MOL      0.213852
     58 H26        -7.6940    2.2300   -1.4140 h1        1 MOL      0.076719
     59 H27        -6.9590    1.4670   -0.1020 h1        1 MOL      0.076719
     60 N6         -6.2740   -0.7310   -1.9660 n         1 MOL     -0.154252
     61 C19        -6.4990   -2.1630   -2.2470 c3        1 MOL     -0.023963
     62 C20        -6.7940   -2.9670   -0.9880 c         1 MOL      0.387486
     63 O10        -6.8890   -4.1990   -1.0590 o         1 MOL     -0.521187
     64 C21        -5.3590   -2.8600   -3.0080 c3        1 MOL     -0.309569
     65 C22        -3.9980   -2.5530   -2.3560 c         1 MOL      0.784175
     66 O11        -2.9440   -2.5340   -3.0600 o         1 MOL     -0.693137
     67 O12        -3.9150   -2.4460   -1.1390 o         1 MOL     -0.693137
     68 H28        -5.4400   -0.4880   -1.4490 hn        1 MOL      0.064032
     69 H29        -7.4200   -2.2630   -2.8270 h1        1 MOL      0.132638
     70 H30        -5.3200   -2.4160   -3.9940 hc        1 MOL      0.105696
     71 H31        -5.4130   -3.9520   -3.0030 hc        1 MOL      0.105696
     72 N7         -6.8380   -2.3720    0.2070 n         1 MOL     -0.199126
     73 C23        -6.9390   -3.0780    1.5150 c3        1 MOL     -0.124050
     74 C24        -5.6850   -3.8640    1.8910 c         1 MOL      0.482191
     75 O13        -5.7080   -4.8590    2.6130 o         1 MOL     -0.534860
     76 H32        -6.7150   -1.3680    0.2150 hn        1 MOL      0.198958
     77 H33        -7.7780   -3.7690    1.4210 h1        1 MOL      0.095175
     78 H34        -7.1310   -2.3800    2.3250 h1        1 MOL      0.095175
     79 N8         -4.4590   -3.4300    1.3830 n         1 MOL     -0.130311
     80 C25        -3.0890   -3.9670    1.7510 c3        1 MOL     -0.188573
     81 C26        -1.9580   -2.9140    1.7840 c         1 MOL      0.541777
     82 O14        -2.1630   -1.8840    1.1400 o         1 MOL     -0.629835
     83 C27        -2.6560   -5.1010    0.7680 c3        1 MOL      0.424847
     84 C28        -3.7180   -6.2470    0.9390 c3        1 MOL     -0.411199
     85 O15        -2.8030   -4.8090   -0.6030 oh        1 MOL     -0.644296
     86 H35        -4.4730   -2.6900    0.6920 hn        1 MOL      0.080680
     87 H36        -3.0970   -4.4230    2.7420 h1        1 MOL      0.093107
     88 H37        -1.6770   -5.5340    0.9860 h1        1 MOL      0.012596
     89 H38        -3.3700   -4.0390   -0.7070 ho        1 MOL      0.468173
     90 H39        -4.7390   -5.9710    0.6690 hc        1 MOL      0.099728
     91 H40        -3.3790   -7.1010    0.3590 hc        1 MOL      0.099728
     92 H41        -3.7290   -6.5780    1.9770 hc        1 MOL      0.099728
     93 N9         -0.8410   -3.2020    2.4000 n         1 MOL     -0.395037
     94 C29         0.3960   -2.4290    2.4570 c3        1 MOL     -0.122337
     95 C30         1.5320   -3.0840    1.5830 c         1 MOL      0.401908
     96 O16         1.8230   -4.2720    1.7900 o         1 MOL     -0.549006
     97 C31         0.7540   -2.1030    3.8770 c3        1 MOL      0.382216
     98 C32        -0.5560   -1.7410    4.6960 c3        1 MOL      0.104644
     99 C33         1.7450   -0.9170    3.7780 c3        1 MOL     -0.496389
    100 C34        -0.2400   -1.7170    6.1280 c3        1 MOL     -0.246237
    101 H42        -0.9610   -4.0890    2.8590 hn        1 MOL      0.235170
    102 H43         0.1050   -1.4660    2.0360 h1        1 MOL      0.096847
    103 H44         1.2540   -2.9110    4.4140 hc        1 MOL     -0.047442
    104 H45        -1.3950   -2.4310    4.5700 hc        1 MOL     -0.004768
    105 H46        -0.8150   -0.7730    4.2880 hc        1 MOL     -0.004768
    106 H47         2.6630   -1.2190    3.2680 hc        1 MOL      0.092948
    107 H48         1.1930   -0.1350    3.2680 hc        1 MOL      0.092948
    108 H49         1.9340   -0.5520    4.7880 hc        1 MOL      0.092948
    109 H50        -1.1060   -1.3480    6.6740 hc        1 MOL      0.050412
    110 H51         0.1230   -2.6630    6.5490 hc        1 MOL      0.050412
    111 H52         0.5460   -0.9810    6.2780 hc        1 MOL      0.050412
    112 N10         2.2520   -2.2880    0.8340 n         1 MOL     -0.010740
    113 C35         3.4730   -2.6580    0.0680 c3        1 MOL     -0.086826
    114 C36         4.7960   -2.2630    0.8050 c         1 MOL      0.375061
    115 O17         4.8080   -1.3410    1.6750 o         1 MOL     -0.376544
    116 C37         3.4550   -2.0590   -1.3150 c3        1 MOL      0.317678
    117 C38         2.3910   -2.5100   -2.3110 c3        1 MOL     -0.640094
    118 O18         3.4820   -0.6510   -1.2870 oh        1 MOL     -0.499559
    119 H53         1.9810   -1.3150    0.7420 hn        1 MOL      0.246769
    120 H54         3.3740   -3.7360   -0.0240 h1        1 MOL      0.068104
    121 H55         4.4200   -2.3290   -1.7480 h1        1 MOL     -0.014346
    122 H56         2.5560   -0.4150   -1.2440 ho        1 MOL      0.332882
    123 H57         1.4300   -2.2350   -1.8910 hc        1 MOL      0.182000
    124 H58         2.5450   -2.0760   -3.3000 hc        1 MOL      0.182000
    125 H59         2.3780   -3.6020   -2.3150 hc        1 MOL      0.182000
    126 N11         5.9240   -2.7660    0.3940 n         1 MOL     -0.355339
    127 C39         7.2910   -2.3010    0.7900 c3        1 MOL     -0.007666
    128 C40         7.5010   -0.8200    0.3920 c         1 MOL      0.129369
    129 O19         8.0350   -0.1080    1.2580 o         1 MOL     -0.456993
    130 C41         8.4800   -3.1110    0.2100 c3        1 MOL      0.332563
    131 C42         8.6570   -4.5010    0.8330 c3        1 MOL     -0.566449
    132 O20         8.3860   -3.3090   -1.2050 oh        1 MOL     -0.626555
    133 H60         5.8200   -3.4120   -0.3780 hn        1 MOL      0.264651
    134 H61         7.5440   -2.4310    1.8390 h1        1 MOL      0.147464
    135 H62         9.3930   -2.5780    0.4680 h1        1 MOL      0.031375
    136 H63         9.2490   -3.6020   -1.5140 ho        1 MOL      0.379919
    137 H64         9.5040   -4.9770    0.3350 hc        1 MOL      0.162352
    138 H65         8.7850   -4.3720    1.8980 hc        1 MOL      0.162352
    139 H66         7.8420   -5.1770    0.5610 hc        1 MOL      0.162352
    140 N12         6.9100   -0.3630   -0.6780 n         1 MOL      0.066110
    141 C43         7.0910    1.0600   -1.1090 c3        1 MOL     -0.004322
    142 C44         6.0180    2.0340   -0.5280 c         1 MOL      0.421826
    143 O21         6.1270    3.2530   -0.5210 o         1 MOL     -0.529631
    144 C45         6.9290    1.0840   -2.6920 c3        1 MOL     -0.335487
    145 C46         8.2160    0.6650   -3.3260 c3        1 MOL      0.167212
    146 C47         8.0980    0.3860   -4.8130 c3        1 MOL     -0.095426
    147 C48         9.4540   -0.0930   -5.3980 c3        1 MOL     -0.222503
    148 N13         9.7210   -1.5230   -5.1030 n4        1 MOL     -0.269258
    149 H67         6.4490   -1.0370   -1.2650 hn        1 MOL      0.218574
    150 H68         8.1010    1.4070   -0.8970 h1        1 MOL      0.083091
    151 H69         6.8300    2.1400   -2.9470 hc        1 MOL      0.122877
    152 H70         6.0590    0.5430   -3.0740 hc        1 MOL      0.122877
    153 H71         8.5410   -0.2920   -2.9150 hc        1 MOL     -0.011467
    154 H72         8.9350    1.4760   -3.1870 hc        1 MOL     -0.011467
    155 H73         7.7650    1.2950   -5.3170 hc        1 MOL      0.075630
    156 H74         7.4170   -0.4580   -4.9440 hc        1 MOL      0.075630
    157 H75        10.2190    0.6000   -5.0340 hx        1 MOL      0.173751
    158 H76         9.4180    0.0030   -6.4810 hx        1 MOL      0.173751
    159 H77        10.6350   -1.7180   -5.4770 hn        1 MOL      0.287365
    160 H78         9.7680   -1.7770   -4.1260 hn        1 MOL      0.287365
    161 H79         9.1230   -2.1850   -5.5660 hn        1 MOL      0.287365
    162 N14         4.9220    1.5160    0.0720 n         1 MOL      0.103206
    163 C49         3.9800    2.2260    0.9620 c3        1 MOL     -0.025478
    164 C50         4.6350    2.4710    2.3810 c         1 MOL      0.507429
    165 O22         4.8940    3.6220    2.6930 o         1 MOL     -0.523477
    166 C51         2.5610    1.6370    0.9610 c3        1 MOL      0.002562
    167 C52         1.7390    1.9780   -0.3450 c3        1 MOL      0.332949
    168 C53         0.5370    1.0590   -0.5580 c         1 MOL      0.433398
    169 O23         0.5510   -0.1880   -0.2630 o         1 MOL     -0.637097
    170 O24        -0.5400    1.5540   -0.9440 o         1 MOL     -0.637097
    171 H80         4.8370    0.5080    0.0030 hn        1 MOL     -0.229696
    172 H81         3.7480    3.2070    0.5440 h1        1 MOL     -0.000750
    173 H82         2.0270    2.0080    1.8370 hc        1 MOL     -0.039616
    174 H83         2.7650    0.5660    1.0160 hc        1 MOL     -0.039616
    175 H84         2.4540    1.9220   -1.1630 hc        1 MOL     -0.086291
    176 H85         1.3940    3.0040   -0.3780 hc        1 MOL     -0.086291
    177 N15         5.0860    1.3910    3.0830 n         1 MOL     -0.287200
    178 C54         5.9630    1.3870    4.1880 c3        1 MOL     -0.120078
    179 H86         6.9490    1.0510    3.8680 h1        1 MOL      0.066766
    180 H87         6.0390    2.3950    4.5960 h1        1 MOL      0.066766
    181 H88         5.5810    0.7120    4.9540 h1        1 MOL      0.066766
    182 H89         4.8900    0.4510    2.7630 hn        1 MOL      0.277411
    183 Ca1        -1.9160   -0.7400   -1.1260 Ca        1 MOL      1.751306
    184 O25        -0.5560   -3.3240   -0.9470 oh        1 MOL     -0.895723
    185 H90        -1.1710   -3.9970   -0.6790 ho        1 MOL      0.404116
    186 H91        -0.0080   -3.7450   -1.6060 ho        1 MOL      0.404116
    187 O26        -0.3890   -0.7490   -3.3420 oh        1 MOL     -0.895723
    188 H92        -1.0030   -0.3020   -3.9220 ho        1 MOL      0.404116
    189 H93         0.4030   -0.8630   -3.8620 ho        1 MOL      0.404116
@<TRIPOS>BOND
     1    1    2 1   
     2    1    4 1   
     3    1    5 1   
     4    1    6 1   
     5    2    3 2   
     6    2    7 1   
     7    7    8 1   
     8    7   15 1   
     9    8    9 1   
    10    8   11 1   
    11    8   16 1   
    12    9   10 2   
    13    9   19 1   
    14   11   12 1   
    15   11   17 1   
    16   11   18 1   
    17   12   13 1   
    18   12   14 1   
    19   19   20 1   
    20   19   28 1   
    21   20   21 1   
    22   20   23 1   
    23   20   29 1   
    24   21   22 2   
    25   21   41 1   
    26   23   24 1   
    27   23   30 1   
    28   23   31 1   
    29   24   25 1   
    30   24   32 1   
    31   24   33 1   
    32   25   26 1   
    33   25   34 1   
    34   25   35 1   
    35   26   27 1   
    36   26   36 1   
    37   26   37 1   
    38   27   38 1   
    39   27   39 1   
    40   27   40 1   
    41   41   42 1   
    42   41   49 1   
    43   42   43 1   
    44   42   45 1   
    45   42   50 1   
    46   43   44 2   
    47   43   53 1   
    48   45   46 1   
    49   45   51 1   
    50   45   52 1   
    51   46   47 1   
    52   46   48 1   
    53   53   54 1   
    54   53   57 1   
    55   54   55 1   
    56   54   58 1   
    57   54   59 1   
    58   55   56 2   
    59   55   60 1   
    60   60   61 1   
    61   60   68 1   
    62   61   62 1   
    63   61   64 1   
    64   61   69 1   
    65   62   63 2   
    66   62   72 1   
    67   64   65 1   
    68   64   70 1   
    69   64   71 1   
    70   65   66 1   
    71   65   67 1   
    72   72   73 1   
    73   72   76 1   
    74   73   74 1   
    75   73   77 1   
    76   73   78 1   
    77   74   75 2   
    78   74   79 1   
    79   79   80 1   
    80   79   86 1   
    81   80   81 1   
    82   80   83 1   
    83   80   87 1   
    84   81   82 2   
    85   81   93 1   
    86   83   84 1   
    87   83   85 1   
    88   83   88 1   
    89   84   90 1   
    90   84   91 1   
    91   84   92 1   
    92   85   89 1   
    93   93   94 1   
    94   93  101 1   
    95   94   95 1   
    96   94   97 1   
    97   94  102 1   
    98   95   96 2   
    99   95  112 1   
   100   97   98 1   
   101   97   99 1   
   102   97  103 1   
   103   98  100 1   
   104   98  104 1   
   105   98  105 1   
   106   99  106 1   
   107   99  107 1   
   108   99  108 1   
   109  100  109 1   
   110  100  110 1   
   111  100  111 1   
   112  112  113 1   
   113  112  119 1   
   114  113  114 1   
   115  113  116 1   
   116  113  120 1   
   117  114  115 2   
   118  114  126 1   
   119  116  117 1   
   120  116  118 1   
   121  116  121 1   
   122  117  123 1   
   123  117  124 1   
   124  117  125 1   
   125  118  122 1   
   126  126  127 1   
   127  126  133 1   
   128  127  128 1   
   129  127  130 1   
   130  127  134 1   
   131  128  129 2   
   132  128  140 1   
   133  130  131 1   
   134  130  132 1   
   135  130  135 1   
   136  131  137 1   
   137  131  138 1   
   138  131  139 1   
   139  132  136 1   
   140  140  141 1   
   141  140  149 1   
   142  141  142 1   
   143  141  144 1   
   144  141  150 1   
   145  142  143 2   
   146  142  162 1   
   147  144  145 1   
   148  144  151 1   
   149  144  152 1   
   150  145  146 1   
   151  145  153 1   
   152  145  154 1   
   153  146  147 1   
   154  146  155 1   
   155  146  156 1   
   156  147  148 1   
   157  147  157 1   
   158  147  158 1   
   159  148  159 1   
   160  148  160 1   
   161  148  161 1   
   162  162  163 1   
   163  162  171 1   
   164  163  164 1   
   165  163  166 1   
   166  163  172 1   
   167  164  165 2   
   168  164  177 1   
   169  166  167 1   
   170  166  173 1   
   171  166  174 1   
   172  167  168 1   
   173  167  175 1   
   174  167  176 1   
   175  168  169 1   
   176  168  170 1   
   177  177  178 1   
   178  177  182 1   
   179  178  179 1   
   180  178  180 1   
   181  178  181 1   
   182  184  185 1   
   183  184  186 1   
   184  187  188 1   
   185  187  189 1   
@<TRIPOS>SUBSTRUCTURE
     1 MOL         1 TEMP              0 ****  ****    0 ROOT
