@<TRIPOS>MOLECULE
MOL
  189   185     1     0     0
SMALL
resp


@<TRIPOS>ATOM
      1 C1          0.2680   -4.2140    5.3240 c3        1 MOL     -0.403430
      2 C2          1.0960   -3.6090    4.1920 c         1 MOL      0.760439
      3 O1          1.1300   -2.3800    4.0870 o         1 MOL     -0.614002
      4 H1         -0.5000   -3.5040    5.6320 hc        1 MOL      0.102276
      5 H2         -0.2050   -5.1320    4.9780 hc        1 MOL      0.102276
      6 H3          0.9170   -4.4360    6.1720 hc        1 MOL      0.102276
      7 N1          1.7680   -4.3930    3.4000 n         1 MOL     -0.597998
      8 C3          2.6050   -3.9770    2.3000 c3        1 MOL      0.363968
      9 C4          2.9260   -4.9570    1.2130 c         1 MOL      0.496360
     10 O2          3.5910   -5.9690    1.5740 o         1 MOL     -0.589282
     11 C5          3.9120   -3.4270    2.8340 c3        1 MOL     -0.301890
     12 C6          4.5750   -2.3840    1.9910 c         1 MOL      0.880806
     13 O3          4.1490   -2.0510    0.8210 o         1 MOL     -0.740496
     14 O4          5.5970   -1.7630    2.3990 o         1 MOL     -0.740496
     15 H4          1.7480   -5.3790    3.6000 hn        1 MOL      0.291705
     16 H5          2.1280   -3.1110    1.8300 h1        1 MOL     -0.053556
     17 H6          4.6300   -4.2140    3.0680 hc        1 MOL      0.048218
     18 H7          3.7200   -2.8650    3.7510 hc        1 MOL      0.048218
     19 N2          2.5120   -4.6610    0.0260 n         1 MOL     -0.420995
     20 C7          2.4160   -5.5820   -1.0650 c3        1 MOL      0.005601
     21 C8          3.4340   -5.1970   -2.2110 c         1 MOL      0.627007
     22 O5          3.7600   -6.0700   -3.0410 o         1 MOL     -0.599177
     23 C9          0.8920   -5.5840   -1.5220 c3        1 MOL      0.044166
     24 C10        -0.2170   -5.6810   -0.4620 c3        1 MOL      0.043359
     25 C11         0.6470   -6.7930   -2.5100 c3        1 MOL     -0.204327
     26 C12        -0.1110   -6.9170    0.5170 c3        1 MOL     -0.293265
     27 H8          2.0970   -3.7520   -0.1670 hn        1 MOL      0.348989
     28 H9          2.7250   -6.5660   -0.7150 h1        1 MOL      0.068085
     29 H10         0.7680   -4.6030   -1.9730 hc        1 MOL      0.013358
     30 H11        -1.2310   -5.7110   -0.8500 hc        1 MOL      0.047997
     31 H12        -0.3120   -4.8030    0.1790 hc        1 MOL      0.047997
     32 H13        -0.3860   -6.9070   -2.8230 hc        1 MOL      0.048185
     33 H14         1.2640   -6.7080   -3.4050 hc        1 MOL      0.048185
     34 H15         0.9870   -7.7070   -2.0350 hc        1 MOL      0.048185
     35 H16         0.8790   -7.2050    0.8580 hc        1 MOL      0.057844
     36 H17        -0.8250   -6.7570    1.3330 hc        1 MOL      0.057844
     37 H18        -0.4970   -7.7070   -0.1230 hc        1 MOL      0.057844
     38 N3          3.9370   -3.9590   -2.1660 n         1 MOL     -0.518389
     39 C13         4.6210   -3.3290   -3.3250 c3        1 MOL      0.035066
     40 C14         5.8410   -2.5120   -2.8310 c         1 MOL      0.466391
     41 O6          6.5970   -2.1820   -3.7080 o         1 MOL     -0.573109
     42 C15         3.6350   -2.4300   -4.0340 c3        1 MOL     -0.165364
     43 C16         2.7440   -1.5770   -3.0990 c         1 MOL      0.771304
     44 O7          3.1460   -1.3110   -1.9380 o         1 MOL     -0.695269
     45 O8          1.6680   -1.2030   -3.5900 o         1 MOL     -0.695269
     46 H19         3.5680   -3.3430   -1.4640 hn        1 MOL      0.272351
     47 H20         4.9600   -4.1960   -3.8990 h1        1 MOL      0.092493
     48 H21         2.9590   -3.0030   -4.6630 hc        1 MOL      0.043829
     49 H22         4.1410   -1.7970   -4.7640 hc        1 MOL      0.043829
     50 N4          6.0170   -2.3550   -1.5600 n         1 MOL     -0.198195
     51 C17         7.1660   -1.6810   -0.9510 c3        1 MOL     -0.211954
     52 C18         7.4130   -0.2460   -1.3930 c         1 MOL      0.511296
     53 O9          8.5040    0.3110   -1.2940 o         1 MOL     -0.617549
     54 H23         5.3040   -2.6230   -0.8930 hn        1 MOL      0.162927
     55 H24         8.0320   -2.2440   -1.2960 h1        1 MOL      0.110512
     56 H25         7.1440   -1.7830    0.1360 h1        1 MOL      0.110512
     57 N5          6.3420    0.4660   -1.7670 n         1 MOL     -0.077613
     58 C19         6.4480    1.7880   -2.4160 c3        1 MOL     -0.233590
     59 C20         6.6630    2.9920   -1.4400 c         1 MOL      0.553022
     60 O10         6.7480    4.1640   -1.7970 o         1 MOL     -0.577259
     61 C21         5.2380    2.0590   -3.3100 c3        1 MOL     -0.160212
     62 C22         3.8020    1.9730   -2.6800 c         1 MOL      0.688082
     63 O11         3.7510    1.5980   -1.4690 o         1 MOL     -0.662012
     64 O12         2.8480    2.1680   -3.4230 o         1 MOL     -0.662012
     65 H26         5.4140    0.0610   -1.7580 hn        1 MOL      0.173968
     66 H27         7.3850    1.7620   -2.9810 h1        1 MOL      0.127628
     67 H28         5.1830    1.2340   -4.0300 hc        1 MOL      0.051840
     68 H29         5.2330    2.9590   -3.9250 hc        1 MOL      0.051840
     69 N6          6.8570    2.6290   -0.1630 n         1 MOL     -0.247978
     70 C23         7.0040    3.5740    0.9660 c3        1 MOL     -0.369397
     71 C24         5.7350    4.3240    1.4520 c         1 MOL      0.562937
     72 O13         5.9300    5.1670    2.3720 o         1 MOL     -0.571300
     73 H30         6.7160    1.6560    0.0620 hn        1 MOL      0.275234
     74 H31         7.7660    4.2510    0.5910 h1        1 MOL      0.154092
     75 H32         7.4440    2.9690    1.7510 h1        1 MOL      0.154092
     76 N7          4.5050    3.9700    0.9960 n         1 MOL     -0.277885
     77 C25         3.2130    4.5790    1.3530 c3        1 MOL     -0.004308
     78 C26         2.1870    3.4520    1.5080 c         1 MOL      0.447632
     79 O14         2.3960    2.3430    1.0940 o         1 MOL     -0.399335
     80 C27         2.6850    5.5400    0.2940 c3        1 MOL      0.060049
     81 C28         3.5040    6.8190   -0.0730 c3        1 MOL     -0.403454
     82 C29         2.6830    7.6540   -1.0030 c         1 MOL      0.737746
     83 N8          2.5660    7.3920   -2.2980 n         1 MOL     -0.829401
     84 O15         2.0840    8.6220   -0.6100 o         1 MOL     -0.600307
     85 H33         4.3930    3.2360    0.3010 hn        1 MOL      0.190649
     86 H34         3.3290    5.0900    2.3070 h1        1 MOL      0.052218
     87 H35         1.6580    5.8080    0.5360 hc        1 MOL      0.046034
     88 H36         2.5780    5.0300   -0.6610 hc        1 MOL      0.046034
     89 H37         4.4500    6.5360   -0.5320 hc        1 MOL      0.127527
     90 H38         3.8560    7.3520    0.8180 hc        1 MOL      0.127527
     91 H39         3.0210    6.6290   -2.7700 hn        1 MOL      0.367697
     92 H40         1.9590    7.9580   -2.8780 hn        1 MOL      0.367697
     93 N9          1.0510    3.8530    2.1800 n         1 MOL     -0.480518
     94 C30        -0.1020    2.9230    2.3490 c3        1 MOL      0.037635
     95 C31        -1.2230    3.3760    1.3550 c         1 MOL      0.447046
     96 O16        -1.4910    4.5610    1.1900 o         1 MOL     -0.556323
     97 C32        -0.6280    3.0730    3.8150 c3        1 MOL      0.377472
     98 C33        -2.0190    2.5840    4.2340 c3        1 MOL     -0.350354
     99 C34         0.4040    2.4440    4.7360 c3        1 MOL     -0.350354
    100 H41         0.8390    4.8300    2.3050 hn        1 MOL      0.272878
    101 H42         0.1440    1.9090    2.0270 h1        1 MOL      0.166481
    102 H43        -0.6030    4.1360    4.0250 hc        1 MOL     -0.063785
    103 H44        -1.9290    1.5010    4.2710 hc        1 MOL      0.069531
    104 H45        -2.3090    2.9370    5.2190 hc        1 MOL      0.069531
    105 H46        -2.6710    2.9830    3.4570 hc        1 MOL      0.069531
    106 H47         0.1160    2.4910    5.7920 hc        1 MOL      0.069531
    107 H48         0.5000    1.4120    4.3940 hc        1 MOL      0.069531
    108 H49         1.3820    2.8480    4.5180 hc        1 MOL      0.069531
    109 N10        -1.8970    2.3680    0.7860 n         1 MOL     -0.366166
    110 C35        -2.9580    2.5070   -0.1880 c3        1 MOL      0.218687
    111 C36        -4.2770    2.1320    0.4480 c         1 MOL      0.217403
    112 O17        -4.2260    1.2790    1.4340 o         1 MOL     -0.340776
    113 C37        -2.7560    1.4620   -1.3460 c3        1 MOL     -0.139783
    114 C38        -3.7820    1.6020   -2.4010 c         1 MOL      0.583332
    115 N11        -4.1250    2.8120   -2.8020 n         1 MOL     -0.766143
    116 O18        -4.3580    0.6180   -2.7990 o         1 MOL     -0.481752
    117 H50        -1.5050    1.4480    0.9100 hn        1 MOL      0.251102
    118 H51        -2.8700    3.5270   -0.5600 h1        1 MOL      0.018350
    119 H52        -2.7640    0.4340   -0.9910 hc        1 MOL      0.072457
    120 H53        -1.7870    1.5730   -1.8240 hc        1 MOL      0.072457
    121 H54        -3.5220    3.6010   -2.5920 hn        1 MOL      0.347039
    122 H55        -4.9180    2.7530   -3.4170 hn        1 MOL      0.347039
    123 N12        -5.4290    2.6100    0.0460 n         1 MOL     -0.189539
    124 C39        -6.6920    2.2870    0.8650 c3        1 MOL      0.021366
    125 C40        -7.0040    0.7990    0.9600 c         1 MOL      0.395648
    126 O19        -7.7900    0.3520    1.8410 o         1 MOL     -0.556869
    127 C41        -7.8670    3.0180    0.2790 c3        1 MOL     -0.190105
    128 C42        -8.3490    2.5320   -1.0770 ca        1 MOL      0.055431
    129 C43        -9.3070    1.4990   -1.1880 ca        1 MOL     -0.202385
    130 C44        -7.7270    3.0350   -2.2870 ca        1 MOL     -0.202385
    131 C45        -9.7350    1.0180   -2.4470 ca        1 MOL     -0.225872
    132 C46        -8.2120    2.5280   -3.5330 ca        1 MOL     -0.225872
    133 C47        -9.1090    1.5140   -3.5990 ca        1 MOL      0.315284
    134 O20        -9.4910    1.1660   -4.9130 oh        1 MOL     -0.535775
    135 H56        -5.4150    3.4110   -0.5720 hn        1 MOL      0.190352
    136 H57        -6.4850    2.6220    1.8890 h1        1 MOL      0.087057
    137 H58        -7.6750    4.0840    0.2320 hc        1 MOL      0.072323
    138 H59        -8.6740    2.8110    0.9910 hc        1 MOL      0.072323
    139 H60        -9.6370    1.0380   -0.2610 ha        1 MOL      0.151652
    140 H61        -7.0710    3.8960   -2.2820 ha        1 MOL      0.151652
    141 H62       -10.4290    0.2010   -2.5270 ha        1 MOL      0.144380
    142 H63        -7.9350    3.0050   -4.4670 ha        1 MOL      0.144380
    143 H64       -10.2180    0.5460   -4.8910 ho        1 MOL      0.396958
    144 N13        -6.4490   -0.0690    0.1060 n         1 MOL      0.098855
    145 C48        -6.5780   -1.5370    0.2690 c3        1 MOL     -0.399989
    146 C49        -5.6070   -2.1140    1.2500 c         1 MOL      0.422039
    147 O21        -5.8620   -3.2320    1.7070 o         1 MOL     -0.513530
    148 C50        -6.4650   -2.1390   -1.0600 c3        1 MOL      0.182560
    149 C51        -7.7350   -1.8460   -1.9040 c3        1 MOL     -0.131838
    150 C52        -7.7980   -2.8530   -3.0780 c         1 MOL      0.624618
    151 O22        -6.7410   -2.9220   -3.7280 o         1 MOL     -0.714515
    152 O23        -8.7610   -3.6340   -3.2230 o         1 MOL     -0.714515
    153 H65        -6.0720    0.2290   -0.7870 hn        1 MOL      0.130856
    154 H66        -7.5660   -1.8540    0.6040 h1        1 MOL      0.166315
    155 H67        -6.2750   -3.2110   -1.0150 hc        1 MOL      0.020932
    156 H68        -5.6780   -1.6110   -1.6020 hc        1 MOL      0.020932
    157 H69        -7.6780   -0.8420   -2.3220 hc        1 MOL      0.003505
    158 H70        -8.6250   -1.9730   -1.2850 hc        1 MOL      0.003505
    159 N14        -4.4170   -1.4760    1.4480 n         1 MOL     -0.240484
    160 C53        -3.4790   -1.9570    2.5310 c3        1 MOL     -0.153893
    161 C54        -3.9650   -1.4380    3.8810 c         1 MOL      0.511048
    162 O24        -3.7920   -2.1050    4.8290 o         1 MOL     -0.588220
    163 C55        -2.0190   -1.5100    2.3870 c3        1 MOL      0.585236
    164 C56        -1.4110   -2.0440    1.0480 c3        1 MOL     -0.385286
    165 C57        -0.0710   -1.4440    0.7950 c         1 MOL      1.068747
    166 O25         0.1420   -0.2650    1.1460 o         1 MOL     -0.866395
    167 O26         0.7930   -2.1170    0.2150 o         1 MOL     -0.866395
    168 H71        -4.2490   -0.5360    1.1190 hn        1 MOL      0.123099
    169 H72        -3.5160   -3.0400    2.4450 h1        1 MOL      0.093086
    170 H73        -1.4620   -1.9400    3.2150 hc        1 MOL     -0.152122
    171 H74        -2.0230   -0.4230    2.4810 hc        1 MOL     -0.152122
    172 H75        -2.0530   -1.6460    0.2570 hc        1 MOL      0.028016
    173 H76        -1.4530   -3.1300    1.0490 hc        1 MOL      0.028016
    174 N15        -4.4900   -0.2680    3.9640 n         1 MOL      0.002119
    175 C58        -5.0430    0.1870    5.2610 c3        1 MOL     -0.331967
    176 H77        -5.3120    1.2410    5.1920 h1        1 MOL      0.106897
    177 H78        -5.9300   -0.3980    5.5030 h1        1 MOL      0.106897
    178 H79        -4.2950    0.0540    6.0430 h1        1 MOL      0.106897
    179 H80        -4.5690    0.3500    3.1690 hn        1 MOL      0.067528
    180 Ca1         2.6060   -0.0780    0.1380 Ca        1 MOL      1.708937
    181 O27         2.4510   -0.2970    2.8170 oh        1 MOL     -0.948457
    182 H81         1.9320   -1.0580    3.0860 ho        1 MOL      0.431703
    183 H82         2.6980    0.1370    3.6330 ho        1 MOL      0.431703
    184 O28         4.8950    0.6430    1.4490 oh        1 MOL     -0.948457
    185 H83         5.1440   -0.1980    1.8390 ho        1 MOL      0.431703
    186 H84         4.9390    1.2600    2.1770 ho        1 MOL      0.431703
    187 O29         0.9150    0.9720   -1.6060 oh        1 MOL     -0.948457
    188 H85         0.4330    0.3880   -2.1920 ho        1 MOL      0.431703
    189 H86         1.5480    1.4020   -2.1780 ho        1 MOL      0.431703
@<TRIPOS>BOND
     1    1    2 1   
     2    1    4 1   
     3    1    5 1   
     4    1    6 1   
     5    2    3 2   
     6    2    7 1   
     7    7    8 1   
     8    7   15 1   
     9    8    9 1   
    10    8   11 1   
    11    8   16 1   
    12    9   10 2   
    13    9   19 1   
    14   11   12 1   
    15   11   17 1   
    16   11   18 1   
    17   12   13 1   
    18   12   14 1   
    19   19   20 1   
    20   19   27 1   
    21   20   21 1   
    22   20   23 1   
    23   20   28 1   
    24   21   22 2   
    25   21   38 1   
    26   23   24 1   
    27   23   25 1   
    28   23   29 1   
    29   24   26 1   
    30   24   30 1   
    31   24   31 1   
    32   25   32 1   
    33   25   33 1   
    34   25   34 1   
    35   26   35 1   
    36   26   36 1   
    37   26   37 1   
    38   38   39 1   
    39   38   46 1   
    40   39   40 1   
    41   39   42 1   
    42   39   47 1   
    43   40   41 2   
    44   40   50 1   
    45   42   43 1   
    46   42   48 1   
    47   42   49 1   
    48   43   44 1   
    49   43   45 1   
    50   50   51 1   
    51   50   54 1   
    52   51   52 1   
    53   51   55 1   
    54   51   56 1   
    55   52   53 2   
    56   52   57 1   
    57   57   58 1   
    58   57   65 1   
    59   58   59 1   
    60   58   61 1   
    61   58   66 1   
    62   59   60 2   
    63   59   69 1   
    64   61   62 1   
    65   61   67 1   
    66   61   68 1   
    67   62   63 1   
    68   62   64 1   
    69   69   70 1   
    70   69   73 1   
    71   70   71 1   
    72   70   74 1   
    73   70   75 1   
    74   71   72 2   
    75   71   76 1   
    76   76   77 1   
    77   76   85 1   
    78   77   78 1   
    79   77   80 1   
    80   77   86 1   
    81   78   79 2   
    82   78   93 1   
    83   80   81 1   
    84   80   87 1   
    85   80   88 1   
    86   81   82 1   
    87   81   89 1   
    88   81   90 1   
    89   82   83 1   
    90   82   84 2   
    91   83   91 1   
    92   83   92 1   
    93   93   94 1   
    94   93  100 1   
    95   94   95 1   
    96   94   97 1   
    97   94  101 1   
    98   95   96 2   
    99   95  109 1   
   100   97   98 1   
   101   97   99 1   
   102   97  102 1   
   103   98  103 1   
   104   98  104 1   
   105   98  105 1   
   106   99  106 1   
   107   99  107 1   
   108   99  108 1   
   109  109  110 1   
   110  109  117 1   
   111  110  111 1   
   112  110  113 1   
   113  110  118 1   
   114  111  112 2   
   115  111  123 1   
   116  113  114 1   
   117  113  119 1   
   118  113  120 1   
   119  114  115 1   
   120  114  116 2   
   121  115  121 1   
   122  115  122 1   
   123  123  124 1   
   124  123  135 1   
   125  124  125 1   
   126  124  127 1   
   127  124  136 1   
   128  125  126 2   
   129  125  144 1   
   130  127  128 1   
   131  127  137 1   
   132  127  138 1   
   133  128  129 ar  
   134  128  130 ar  
   135  129  131 ar  
   136  129  139 1   
   137  130  132 ar  
   138  130  140 1   
   139  131  133 ar  
   140  131  141 1   
   141  132  133 ar  
   142  132  142 1   
   143  133  134 1   
   144  134  143 1   
   145  144  145 1   
   146  144  153 1   
   147  145  146 1   
   148  145  148 1   
   149  145  154 1   
   150  146  147 2   
   151  146  159 1   
   152  148  149 1   
   153  148  155 1   
   154  148  156 1   
   155  149  150 1   
   156  149  157 1   
   157  149  158 1   
   158  150  151 1   
   159  150  152 1   
   160  159  160 1   
   161  159  168 1   
   162  160  161 1   
   163  160  163 1   
   164  160  169 1   
   165  161  162 2   
   166  161  174 1   
   167  163  164 1   
   168  163  170 1   
   169  163  171 1   
   170  164  165 1   
   171  164  172 1   
   172  164  173 1   
   173  165  166 1   
   174  165  167 1   
   175  174  175 1   
   176  174  179 1   
   177  175  176 1   
   178  175  177 1   
   179  175  178 1   
   180  181  182 1   
   181  181  183 1   
   182  184  185 1   
   183  184  186 1   
   184  187  188 1   
   185  187  189 1   
@<TRIPOS>SUBSTRUCTURE
     1 MOL         1 TEMP              0 ****  ****    0 ROOT
