@<TRIPOS>MOLECULE
MOL
  179   176     1     0     0
SMALL
resp


@<TRIPOS>ATOM
      1 C1          1.6690    2.7230    5.4880 c3        1 MOL     -0.230997
      2 C2          0.9430    2.4590    4.1710 c         1 MOL      0.728825
      3 O1          1.6120    2.5500    3.1660 o         1 MOL     -0.590003
      4 H1          2.6770    2.3130    5.4350 hc        1 MOL      0.055044
      5 H2          1.7230    3.7970    5.6660 hc        1 MOL      0.055044
      6 H3          1.1260    2.2460    6.3050 hc        1 MOL      0.055044
      7 N1         -0.3600    2.2710    4.1750 n         1 MOL     -0.630580
      8 C3         -1.1740    2.0900    2.9750 c3        1 MOL      0.152194
      9 C4         -1.3710    3.4150    2.2270 c         1 MOL      0.502183
     10 O2         -2.1140    4.3240    2.6950 o         1 MOL     -0.535340
     11 C5         -2.5370    1.3520    3.2190 c3        1 MOL     -0.054153
     12 C6         -3.3110    1.0180    1.9390 c         1 MOL      0.785522
     13 O3         -4.4550    0.4680    2.0710 o         1 MOL     -0.761808
     14 O4         -2.8090    1.1780    0.8060 o         1 MOL     -0.761808
     15 H4         -0.7590    2.2980    5.1000 hn        1 MOL      0.335600
     16 H5         -0.6410    1.4790    2.2450 h1        1 MOL      0.011639
     17 H6         -3.1640    1.9640    3.8770 hc        1 MOL      0.015999
     18 H7         -2.3900    0.4180    3.7650 hc        1 MOL      0.015999
     19 N2         -0.5590    3.5780    1.1510 n         1 MOL     -0.302232
     20 C7         -0.5500    4.8530    0.3820 c3        1 MOL     -0.094482
     21 C8         -1.8320    5.2370   -0.3900 c         1 MOL      0.434540
     22 O5         -2.1010    6.4490   -0.6160 o         1 MOL     -0.564007
     23 C9          0.7030    5.0390   -0.5120 c3        1 MOL      0.000826
     24 C10         0.7490    6.4110   -1.2330 c3        1 MOL     -0.138025
     25 C11         2.0690    6.7510   -1.9720 c3        1 MOL     -0.201901
     26 C12         3.2560    6.4060   -1.1760 c3        1 MOL      0.114323
     27 N3          4.4540    6.6660   -2.0200 n4        1 MOL     -0.493326
     28 H8          0.0540    2.8090    0.9350 hn        1 MOL      0.301666
     29 H9         -0.4080    5.6500    1.1070 h1        1 MOL      0.109444
     30 H10         0.7240    4.2920   -1.3090 hc        1 MOL      0.019917
     31 H11         1.5690    4.7570    0.0930 hc        1 MOL      0.019917
     32 H12         0.7030    7.1920   -0.4820 hc        1 MOL      0.102885
     33 H13        -0.0750    6.4930   -1.9440 hc        1 MOL      0.102885
     34 H14         1.9650    7.8080   -2.2050 hc        1 MOL      0.075436
     35 H15         2.0920    6.2080   -2.9160 hc        1 MOL      0.075436
     36 H16         3.2260    5.3340   -0.9540 hx        1 MOL      0.107603
     37 H17         3.3450    6.8500   -0.1860 hx        1 MOL      0.107603
     38 H18         4.2020    7.4110   -2.6570 hn        1 MOL      0.356219
     39 H19         5.1970    7.0050   -1.4330 hn        1 MOL      0.356219
     40 H20         4.7300    5.8530   -2.5630 hn        1 MOL      0.356219
     41 N4         -2.6100    4.2300   -0.7830 n         1 MOL     -0.097935
     42 C13        -3.8550    4.3240   -1.6300 c3        1 MOL     -0.045200
     43 C14        -5.1340    3.9080   -1.0350 c         1 MOL      0.457536
     44 O6         -6.2160    4.1560   -1.4440 o         1 MOL     -0.515464
     45 C15        -3.6980    3.6370   -3.0290 c3        1 MOL     -0.086275
     46 C16        -3.1870    2.2260   -3.1680 c         1 MOL      0.695027
     47 O7         -2.9800    1.7810   -4.3450 o         1 MOL     -0.684870
     48 O8         -3.0210    1.5150   -2.0930 o         1 MOL     -0.684870
     49 H21        -2.2670    3.2830   -0.7090 hn        1 MOL      0.057038
     50 H22        -3.9920    5.3790   -1.8470 h1        1 MOL      0.108996
     51 H23        -2.9680    4.2550   -3.5600 hc        1 MOL      0.031159
     52 H24        -4.6090    3.8120   -3.6040 hc        1 MOL      0.031159
     53 N5         -5.0760    3.2330    0.1510 n         1 MOL     -0.204253
     54 C17        -6.2280    2.6830    0.8490 c3        1 MOL     -0.146380
     55 C18        -6.8160    1.4870    0.1180 c         1 MOL      0.571027
     56 O9         -7.9840    1.1420    0.3420 o         1 MOL     -0.600431
     57 H25        -4.1510    3.0900    0.5490 hn        1 MOL      0.132263
     58 H26        -7.0280    3.3800    1.0750 h1        1 MOL      0.104375
     59 H27        -5.8310    2.3120    1.7930 h1        1 MOL      0.104375
     60 N6         -6.0880    0.7380   -0.7000 n         1 MOL     -0.206548
     61 C19        -6.4330   -0.5550   -1.2570 c3        1 MOL     -0.026613
     62 C20        -6.4310   -1.7350   -0.2050 c         1 MOL      0.392685
     63 O10        -6.6260   -2.9140   -0.5140 o         1 MOL     -0.524912
     64 C21        -5.6560   -0.9350   -2.5540 c3        1 MOL     -0.362991
     65 C22        -4.3270   -1.7020   -2.2680 c         1 MOL      0.591100
     66 N7         -3.9380   -2.5360   -3.1450 n         1 MOL     -0.624519
     67 O11        -3.6660   -1.4200   -1.2530 o         1 MOL     -0.652098
     68 H28        -5.0850    0.7890   -0.5440 hn        1 MOL      0.079451
     69 H29        -7.4520   -0.5640   -1.6300 h1        1 MOL      0.124604
     70 H30        -5.4630    0.0370   -3.0070 hc        1 MOL      0.144830
     71 H31        -6.2540   -1.5330   -3.2310 hc        1 MOL      0.144830
     72 H32        -4.5250   -2.7250   -3.9540 hn        1 MOL      0.333704
     73 H33        -3.1060   -3.0450   -2.9050 hn        1 MOL      0.333704
     74 N8         -6.2350   -1.3390    1.0310 n         1 MOL     -0.143468
     75 C23        -6.1750   -2.2010    2.1710 c3        1 MOL     -0.303148
     76 C24        -4.9750   -3.1580    2.2530 c         1 MOL      0.587492
     77 O12        -5.1070   -4.1620    2.9450 o         1 MOL     -0.585621
     78 H34        -5.8390   -0.4050    1.0960 hn        1 MOL      0.310406
     79 H35        -7.0180   -2.8890    2.1100 h1        1 MOL      0.133839
     80 H36        -6.2290   -1.5990    3.0720 h1        1 MOL      0.133839
     81 N9         -3.9080   -2.9970    1.5440 n         1 MOL     -0.332893
     82 C25        -2.6400   -3.7610    1.7110 c3        1 MOL      0.041646
     83 C26        -1.4050   -2.9490    1.5740 c         1 MOL      0.697858
     84 O13        -1.4200   -1.9440    0.8460 o         1 MOL     -0.767335
     85 C27        -2.6320   -5.1080    1.0170 c3        1 MOL     -0.125670
     86 C28        -2.3220   -5.1830   -0.5270 ca        1 MOL      0.035410
     87 C29        -1.0560   -4.7780   -1.0250 ca        1 MOL     -0.157368
     88 C30        -3.3240   -5.5720   -1.4140 ca        1 MOL     -0.157368
     89 C31        -0.7650   -4.9950   -2.4010 ca        1 MOL     -0.244230
     90 C32        -3.1290   -5.5140   -2.8000 ca        1 MOL     -0.244230
     91 C33        -1.7950   -5.2760   -3.2920 ca        1 MOL      0.300237
     92 O14        -1.5510   -5.4400   -4.6070 oh        1 MOL     -0.516287
     93 H37        -3.9190   -2.1790    0.9500 hn        1 MOL      0.359929
     94 H38        -2.5420   -4.1050    2.7380 h1        1 MOL      0.039277
     95 H39        -3.5450   -5.6500    1.2550 hc        1 MOL      0.077595
     96 H40        -1.8400   -5.6630    1.5270 hc        1 MOL      0.077595
     97 H41        -0.1980   -4.4590   -0.4430 ha        1 MOL      0.158894
     98 H42        -4.2830   -5.7770   -0.9730 ha        1 MOL      0.158894
     99 H43         0.2170   -4.7880   -2.8190 ha        1 MOL      0.164596
    100 H44        -3.8850   -5.8930   -3.4870 ha        1 MOL      0.164596
    101 H45        -0.6430   -5.2150   -4.8510 ho        1 MOL      0.376546
    102 N10        -0.3320   -3.3690    2.2910 n         1 MOL     -0.724601
    103 C34         1.0170   -2.7870    2.1400 c3        1 MOL      0.381330
    104 C35         1.9210   -3.6060    1.2310 c         1 MOL      0.241035
    105 O15         1.9480   -4.8450    1.5300 o         1 MOL     -0.540593
    106 C36         1.6550   -2.7550    3.5230 c3        1 MOL      0.041125
    107 C37         0.8750   -1.9220    4.6510 c3        1 MOL      0.139953
    108 C38         3.0110   -2.0530    3.4320 c3        1 MOL     -0.278149
    109 C39         1.3310   -2.1370    6.0310 c3        1 MOL     -0.537828
    110 H46        -0.4690   -4.2440    2.7730 hn        1 MOL      0.368898
    111 H47         0.9860   -1.7790    1.7330 h1        1 MOL      0.069037
    112 H48         1.7030   -3.8050    3.8310 hc        1 MOL      0.023938
    113 H49        -0.1870   -2.1500    4.5770 hc        1 MOL      0.009221
    114 H50         0.8360   -0.8830    4.3440 hc        1 MOL      0.009221
    115 H51         3.7210   -2.6300    2.8340 hc        1 MOL      0.062887
    116 H52         2.9610   -1.0240    3.0850 hc        1 MOL      0.062887
    117 H53         3.4000   -1.9760    4.4510 hc        1 MOL      0.062887
    118 H54         2.3500   -1.8050    6.2350 hc        1 MOL      0.135951
    119 H55         0.5480   -1.7490    6.6880 hc        1 MOL      0.135951
    120 H56         1.4730   -3.1780    6.3410 hc        1 MOL      0.135951
    121 N11         2.6400   -3.0340    0.2770 n         1 MOL      0.331038
    122 C40         3.6880   -3.6770   -0.5110 c3        1 MOL     -0.102403
    123 C41         5.0640   -3.0440   -0.2820 c         1 MOL      0.480280
    124 O16         5.1390   -2.0130    0.3830 o         1 MOL     -0.414473
    125 C42         3.2470   -3.7030   -1.9500 c3        1 MOL      0.366801
    126 O17         2.9880   -2.3860   -2.4600 oh        1 MOL     -0.700621
    127 H57         2.6440   -2.0330    0.1330 hn        1 MOL     -0.432858
    128 H58         3.8160   -4.7310   -0.2540 h1        1 MOL      0.036759
    129 H59         2.3080   -4.2490   -2.0340 h1        1 MOL     -0.048537
    130 H60         4.0520   -4.1280   -2.5430 h1        1 MOL     -0.048537
    131 H61         2.3500   -1.8870   -1.9450 ho        1 MOL      0.474353
    132 N12         6.1540   -3.4990   -0.9620 n         1 MOL     -0.484319
    133 C43         7.5510   -3.0000   -0.6150 c3        1 MOL      0.135538
    134 C44         7.9400   -1.5220   -0.9660 c         1 MOL      0.435292
    135 O18         8.8080   -0.9950   -0.2480 o         1 MOL     -0.514775
    136 C45         8.5360   -4.0330   -1.1050 c3        1 MOL     -0.273817
    137 H62         5.9900   -4.3640   -1.4460 hn        1 MOL      0.300283
    138 H63         7.5210   -3.0700    0.4790 h1        1 MOL      0.094028
    139 H64         8.6010   -4.1120   -2.1950 hc        1 MOL      0.092321
    140 H65         9.4730   -3.8610   -0.5750 hc        1 MOL      0.092321
    141 H66         8.1910   -5.0170   -0.7800 hc        1 MOL      0.092321
    142 N13         7.2950   -0.8600   -1.9430 n         1 MOL     -0.262476
    143 C46         7.6780    0.5190   -2.3130 c3        1 MOL     -0.001119
    144 C47         6.8580    1.6030   -1.5960 c         1 MOL      0.402276
    145 O19         7.2860    2.7350   -1.4520 o         1 MOL     -0.507432
    146 C48         7.6230    0.6580   -3.8600 c3        1 MOL     -0.167575
    147 H67         6.6000   -1.2980   -2.5260 hn        1 MOL      0.218127
    148 H68         8.7610    0.5770   -2.1880 h1        1 MOL      0.132741
    149 H69         6.5870    0.9180   -4.0970 hc        1 MOL      0.060634
    150 H70         8.2020    1.5290   -4.1770 hc        1 MOL      0.060634
    151 H71         8.0990   -0.1660   -4.3940 hc        1 MOL      0.060634
    152 N14         5.6450    1.3030   -1.0310 n         1 MOL     -0.149573
    153 C49         4.8970    2.0610   -0.0070 c3        1 MOL     -0.240042
    154 C50         5.3460    1.9330    1.4590 c         1 MOL      0.495080
    155 O20         5.3360    2.8700    2.3050 o         1 MOL     -0.555549
    156 C51         3.3390    1.7870    0.0210 c3        1 MOL     -0.008995
    157 C52         2.9540    0.2640    0.2690 c3        1 MOL     -0.082004
    158 C53         1.4950    0.0430   -0.1050 c         1 MOL      0.623099
    159 O21         0.6280    0.8010    0.3880 o         1 MOL     -0.669872
    160 O22         1.2560   -0.7930   -0.9820 o         1 MOL     -0.669872
    161 H72         5.2340    0.4330   -1.3030 hn        1 MOL      0.171874
    162 H73         5.0490    3.1090   -0.2870 h1        1 MOL      0.113279
    163 H74         2.9590    1.9830   -0.9760 hc        1 MOL      0.012378
    164 H75         2.7960    2.4650    0.6770 hc        1 MOL      0.012378
    165 H76         3.1330    0.1060    1.3340 hc        1 MOL      0.102577
    166 H77         3.6210   -0.3500   -0.3390 hc        1 MOL      0.102577
    167 N15         5.9460    0.7900    1.7580 n         1 MOL     -0.075402
    168 C54         6.8090    0.5210    2.9630 c3        1 MOL     -0.177974
    169 H78         7.8150    0.2580    2.6380 h1        1 MOL      0.092152
    170 H79         6.8510    1.4140    3.5870 h1        1 MOL      0.092152
    171 H80         6.3860   -0.3030    3.5370 h1        1 MOL      0.092152
    172 H81         5.8750   -0.0210    1.1520 hn        1 MOL      0.098079
    173 Ca1        -1.4600   -0.0820   -1.0460 Ca        1 MOL      1.813701
    174 O23        -1.0430   -1.3860   -3.4510 oh        1 MOL     -0.902070
    175 H82        -1.6850   -1.2640   -4.1550 ho        1 MOL      0.423576
    176 H83        -0.4430   -2.0520   -3.7950 ho        1 MOL      0.423576
    177 O24        -0.2150    1.8350   -2.3480 oh        1 MOL     -0.902070
    178 H84        -0.5380    2.0150   -3.2290 ho        1 MOL      0.423576
    179 H85         0.6610    2.2210   -2.3360 ho        1 MOL      0.423576
@<TRIPOS>BOND
     1    1    2 1   
     2    1    4 1   
     3    1    5 1   
     4    1    6 1   
     5    2    3 2   
     6    2    7 1   
     7    7    8 1   
     8    7   15 1   
     9    8    9 1   
    10    8   11 1   
    11    8   16 1   
    12    9   10 2   
    13    9   19 1   
    14   11   12 1   
    15   11   17 1   
    16   11   18 1   
    17   12   13 1   
    18   12   14 1   
    19   19   20 1   
    20   19   28 1   
    21   20   21 1   
    22   20   23 1   
    23   20   29 1   
    24   21   22 2   
    25   21   41 1   
    26   23   24 1   
    27   23   30 1   
    28   23   31 1   
    29   24   25 1   
    30   24   32 1   
    31   24   33 1   
    32   25   26 1   
    33   25   34 1   
    34   25   35 1   
    35   26   27 1   
    36   26   36 1   
    37   26   37 1   
    38   27   38 1   
    39   27   39 1   
    40   27   40 1   
    41   41   42 1   
    42   41   49 1   
    43   42   43 1   
    44   42   45 1   
    45   42   50 1   
    46   43   44 2   
    47   43   53 1   
    48   45   46 1   
    49   45   51 1   
    50   45   52 1   
    51   46   47 1   
    52   46   48 1   
    53   53   54 1   
    54   53   57 1   
    55   54   55 1   
    56   54   58 1   
    57   54   59 1   
    58   55   56 2   
    59   55   60 1   
    60   60   61 1   
    61   60   68 1   
    62   61   62 1   
    63   61   64 1   
    64   61   69 1   
    65   62   63 2   
    66   62   74 1   
    67   64   65 1   
    68   64   70 1   
    69   64   71 1   
    70   65   66 1   
    71   65   67 2   
    72   66   72 1   
    73   66   73 1   
    74   74   75 1   
    75   74   78 1   
    76   75   76 1   
    77   75   79 1   
    78   75   80 1   
    79   76   77 2   
    80   76   81 1   
    81   81   82 1   
    82   81   93 1   
    83   82   83 1   
    84   82   85 1   
    85   82   94 1   
    86   83   84 2   
    87   83  102 1   
    88   85   86 1   
    89   85   95 1   
    90   85   96 1   
    91   86   87 ar  
    92   86   88 ar  
    93   87   89 ar  
    94   87   97 1   
    95   88   90 ar  
    96   88   98 1   
    97   89   91 ar  
    98   89   99 1   
    99   90   91 ar  
   100   90  100 1   
   101   91   92 1   
   102   92  101 1   
   103  102  103 1   
   104  102  110 1   
   105  103  104 1   
   106  103  106 1   
   107  103  111 1   
   108  104  105 2   
   109  104  121 1   
   110  106  107 1   
   111  106  108 1   
   112  106  112 1   
   113  107  109 1   
   114  107  113 1   
   115  107  114 1   
   116  108  115 1   
   117  108  116 1   
   118  108  117 1   
   119  109  118 1   
   120  109  119 1   
   121  109  120 1   
   122  121  122 1   
   123  121  127 1   
   124  122  123 1   
   125  122  125 1   
   126  122  128 1   
   127  123  124 2   
   128  123  132 1   
   129  125  126 1   
   130  125  129 1   
   131  125  130 1   
   132  126  131 1   
   133  132  133 1   
   134  132  137 1   
   135  133  134 1   
   136  133  136 1   
   137  133  138 1   
   138  134  135 2   
   139  134  142 1   
   140  136  139 1   
   141  136  140 1   
   142  136  141 1   
   143  142  143 1   
   144  142  147 1   
   145  143  144 1   
   146  143  146 1   
   147  143  148 1   
   148  144  145 2   
   149  144  152 1   
   150  146  149 1   
   151  146  150 1   
   152  146  151 1   
   153  152  153 1   
   154  152  161 1   
   155  153  154 1   
   156  153  156 1   
   157  153  162 1   
   158  154  155 2   
   159  154  167 1   
   160  156  157 1   
   161  156  163 1   
   162  156  164 1   
   163  157  158 1   
   164  157  165 1   
   165  157  166 1   
   166  158  159 1   
   167  158  160 1   
   168  167  168 1   
   169  167  172 1   
   170  168  169 1   
   171  168  170 1   
   172  168  171 1   
   173  174  175 1   
   174  174  176 1   
   175  177  178 1   
   176  177  179 1   
@<TRIPOS>SUBSTRUCTURE
     1 MOL         1 TEMP              0 ****  ****    0 ROOT
