@<TRIPOS>MOLECULE
MOL
  189   185     1     0     0
SMALL
resp


@<TRIPOS>ATOM
      1 C1          2.2510   -3.3420    6.2310 c3        1 MOL     -0.392520
      2 C2          2.1900   -2.9640    4.7030 c         1 MOL      0.749267
      3 O1          1.6260   -1.9360    4.3470 o         1 MOL     -0.563011
      4 H1          3.2900   -3.4730    6.5310 hc        1 MOL      0.098470
      5 H2          1.8020   -2.5440    6.8220 hc        1 MOL      0.098470
      6 H3          1.7050   -4.2700    6.4000 hc        1 MOL      0.098470
      7 N1          2.8750   -3.7900    3.8510 n         1 MOL     -0.671223
      8 C3          3.2230   -3.5560    2.5080 c3        1 MOL      0.265771
      9 C4          3.2130   -4.8140    1.5880 c         1 MOL      0.427309
     10 O2          3.5450   -5.9850    1.9110 o         1 MOL     -0.583161
     11 C5          4.6500   -2.9680    2.5740 c3        1 MOL     -0.135600
     12 C6          4.9900   -2.2950    1.2660 c         1 MOL      0.639331
     13 O3          4.0590   -2.0030    0.4650 o         1 MOL     -0.657951
     14 O4          6.1750   -2.2220    0.9100 o         1 MOL     -0.657951
     15 H4          3.3440   -4.5910    4.2470 hn        1 MOL      0.306454
     16 H5          2.4900   -2.8290    2.1800 h1        1 MOL      0.072315
     17 H6          5.3790   -3.7510    2.7850 hc        1 MOL      0.019219
     18 H7          4.7130   -2.2980    3.4380 hc        1 MOL      0.019219
     19 N2          2.7640   -4.5490    0.3390 n         1 MOL     -0.062845
     20 C7          2.6780   -5.5840   -0.7500 c3        1 MOL     -0.019213
     21 C8          3.4200   -5.0350   -1.9920 c         1 MOL      0.444740
     22 O5          4.0800   -5.8210   -2.6080 o         1 MOL     -0.552798
     23 C9          1.2610   -5.8680   -1.1820 c3        1 MOL      0.213232
     24 C10         0.2870   -6.4750   -0.0710 c3        1 MOL      0.120904
     25 C11         1.1870   -6.8590   -2.4260 c3        1 MOL     -0.347321
     26 C12         0.7080   -7.8720    0.3770 c3        1 MOL     -0.156591
     27 H8          2.3470   -3.6480    0.1810 hn        1 MOL     -0.048703
     28 H9          3.1450   -6.5230   -0.4440 h1        1 MOL      0.078301
     29 H10         0.8350   -4.9210   -1.5050 hc        1 MOL     -0.023976
     30 H11        -0.6710   -6.5440   -0.5890 hc        1 MOL     -0.024123
     31 H12         0.1820   -5.8460    0.8200 hc        1 MOL     -0.024123
     32 H13         1.2640   -6.3710   -3.4030 hc        1 MOL      0.078083
     33 H14         2.0060   -7.5720   -2.3730 hc        1 MOL      0.078083
     34 H15         0.2550   -7.4070   -2.4850 hc        1 MOL      0.078083
     35 H16         0.0160   -8.2150    1.1420 hc        1 MOL      0.020185
     36 H17         0.6780   -8.4750   -0.5310 hc        1 MOL      0.020185
     37 H18         1.7070   -7.9090    0.8000 hc        1 MOL      0.020185
     38 N3          3.4420   -3.7290   -2.1140 n         1 MOL     -0.155895
     39 C13         3.8530   -3.1420   -3.2950 c3        1 MOL      0.023825
     40 C14         5.1650   -2.4050   -3.3510 c         1 MOL      0.389531
     41 O6          5.8240   -2.4220   -4.3760 o         1 MOL     -0.560785
     42 C15         2.7190   -2.2660   -3.9340 c3        1 MOL     -0.116912
     43 C16         2.2760   -1.0290   -3.1640 c         1 MOL      0.733975
     44 O7          3.0480   -0.3710   -2.4090 o         1 MOL     -0.705480
     45 O8          1.1620   -0.4870   -3.4010 o         1 MOL     -0.705480
     46 H19         2.9440   -3.1610   -1.4460 hn        1 MOL      0.131443
     47 H20         4.0040   -3.9120   -4.0430 h1        1 MOL      0.069068
     48 H21         1.8180   -2.8090   -4.2180 hc        1 MOL      0.040811
     49 H22         3.0900   -1.9440   -4.9090 hc        1 MOL      0.040811
     50 N4          5.7090   -1.8130   -2.2350 n         1 MOL     -0.025838
     51 C17         7.0040   -1.1530   -2.0880 c3        1 MOL     -0.372055
     52 C18         7.0070    0.3670   -2.3670 c         1 MOL      0.549742
     53 O9          8.0180    1.0660   -2.3610 o         1 MOL     -0.637150
     54 H23         5.1270   -1.8890   -1.4130 hn        1 MOL      0.059872
     55 H24         7.7090   -1.5880   -2.7940 h1        1 MOL      0.150219
     56 H25         7.2560   -1.2860   -1.0380 h1        1 MOL      0.150219
     57 N5          5.8850    1.0180   -2.5560 n         1 MOL     -0.145980
     58 C19         5.7700    2.3320   -3.1760 c3        1 MOL      0.034406
     59 C20         6.2830    3.4610   -2.1470 c         1 MOL      0.479138
     60 O10         6.5910    4.5590   -2.6030 o         1 MOL     -0.577691
     61 C21         4.3180    2.7240   -3.5840 c3        1 MOL     -0.303243
     62 C22         3.2570    2.7640   -2.5210 c         1 MOL      0.886238
     63 O11         3.4920    2.3870   -1.3540 o         1 MOL     -0.743400
     64 O12         2.1360    3.3040   -2.7460 o         1 MOL     -0.743400
     65 H26         5.0020    0.5570   -2.4370 hn        1 MOL      0.108276
     66 H27         6.4500    2.3670   -4.0270 h1        1 MOL      0.069275
     67 H28         3.9400    1.9660   -4.2730 hc        1 MOL      0.072947
     68 H29         4.3020    3.7040   -4.0590 hc        1 MOL      0.072947
     69 N6          6.2960    3.1430   -0.8670 n         1 MOL     -0.106559
     70 C23         6.6180    4.0710    0.2200 c3        1 MOL     -0.251855
     71 C24         5.3490    4.5880    1.0190 c         1 MOL      0.580128
     72 O13         5.5300    5.5250    1.8080 o         1 MOL     -0.615180
     73 H30         5.8960    2.2540   -0.6070 hn        1 MOL      0.103855
     74 H31         7.0620    5.0060   -0.1300 h1        1 MOL      0.106422
     75 H32         7.2180    3.6040    0.9950 h1        1 MOL      0.106422
     76 N7          4.1310    4.0470    0.9020 n         1 MOL     -0.276730
     77 C25         2.9510    4.5150    1.7540 c3        1 MOL     -0.014388
     78 C26         2.0290    3.3350    2.0620 c         1 MOL      0.492068
     79 O14         2.1240    2.4100    1.2570 o         1 MOL     -0.547430
     80 C27         2.0980    5.5650    1.0110 c3        1 MOL     -0.100063
     81 C28         2.6850    6.9400    0.7340 c3        1 MOL     -0.224452
     82 C29         1.6600    7.8680    0.1780 c         1 MOL      0.682035
     83 N8          1.5690    7.8000   -1.1490 n         1 MOL     -0.833298
     84 O15         0.9620    8.5720    0.8560 o         1 MOL     -0.579847
     85 H33         3.9480    3.3740    0.1760 hn        1 MOL      0.188407
     86 H34         3.3850    4.8840    2.6920 h1        1 MOL      0.069126
     87 H35         1.2650    5.7140    1.7030 hc        1 MOL      0.084743
     88 H36         1.7060    5.2220    0.0590 hc        1 MOL      0.084743
     89 H37         3.6220    6.9090    0.1820 hc        1 MOL      0.084916
     90 H38         3.0520    7.3830    1.6510 hc        1 MOL      0.084916
     91 H39         2.0480    7.0820   -1.6680 hn        1 MOL      0.371027
     92 H40         0.8400    8.2820   -1.6490 hn        1 MOL      0.371027
     93 N9          1.0700    3.2420    2.9840 n         1 MOL     -0.470272
     94 C30         0.0200    2.1700    3.0340 c3        1 MOL      0.053502
     95 C31        -1.2440    2.6860    2.3280 c         1 MOL      0.545666
     96 O16        -1.7680    3.6950    2.7880 o         1 MOL     -0.602564
     97 C32        -0.3570    1.5350    4.4580 c3        1 MOL      0.246959
     98 C33        -0.8850    0.1600    4.2000 c3        1 MOL     -0.268545
     99 C34         0.8860    1.5150    5.4060 c3        1 MOL     -0.268545
    100 H41         0.9320    4.0530    3.5680 hn        1 MOL      0.283714
    101 H42         0.3870    1.3050    2.4790 h1        1 MOL      0.094257
    102 H43        -1.1460    2.1000    4.9510 hc        1 MOL     -0.025447
    103 H44        -1.8310    0.1980    3.6760 hc        1 MOL      0.046206
    104 H45        -0.1980   -0.4640    3.6290 hc        1 MOL      0.046206
    105 H46        -1.0830   -0.2400    5.1950 hc        1 MOL      0.046206
    106 H47         1.6710    1.0000    4.8560 hc        1 MOL      0.046206
    107 H48         1.1730    2.5600    5.5190 hc        1 MOL      0.046206
    108 H49         0.7020    1.1370    6.4120 hc        1 MOL      0.046206
    109 N10        -1.6870    1.9540    1.3190 n         1 MOL     -0.362282
    110 C35        -2.8920    2.3960    0.6120 c3        1 MOL      0.288721
    111 C36        -4.1710    1.7650    1.2700 c         1 MOL      0.275752
    112 O17        -4.0830    0.6690    1.8420 o         1 MOL     -0.310216
    113 C37        -2.7320    2.0170   -0.9310 c3        1 MOL     -0.305526
    114 C38        -3.7950    2.5380   -1.8800 c         1 MOL      0.747731
    115 N11        -4.2330    3.7330   -1.7450 n         1 MOL     -0.794854
    116 O18        -4.4140    1.7620   -2.5850 o         1 MOL     -0.582091
    117 H50        -1.2080    1.1580    0.9140 hn        1 MOL      0.142296
    118 H51        -3.0830    3.4620    0.6670 h1        1 MOL     -0.016990
    119 H52        -2.7120    0.9300   -1.0140 hc        1 MOL      0.117516
    120 H53        -1.8340    2.4860   -1.3320 hc        1 MOL      0.117516
    121 H54        -3.8650    4.4500   -1.1240 hn        1 MOL      0.338501
    122 H55        -5.2080    3.7410   -1.9990 hn        1 MOL      0.338501
    123 N12        -5.3280    2.3780    1.0560 n         1 MOL     -0.336784
    124 C39        -6.5690    1.8630    1.6580 c3        1 MOL      0.142746
    125 C40        -6.9160    0.4270    1.4340 c         1 MOL      0.282078
    126 O19        -7.1500   -0.3110    2.4130 o         1 MOL     -0.511832
    127 C41        -7.7420    2.8520    1.2770 c3        1 MOL     -0.247289
    128 C42        -8.1280    2.9220   -0.2260 ca        1 MOL      0.105952
    129 C43        -9.0600    1.9620   -0.6100 ca        1 MOL     -0.220285
    130 C44        -7.5950    3.8150   -1.1020 ca        1 MOL     -0.220285
    131 C45        -9.3840    1.7420   -1.9880 ca        1 MOL     -0.272838
    132 C46        -7.9120    3.5890   -2.4780 ca        1 MOL     -0.272838
    133 C47        -8.7890    2.5870   -2.9220 ca        1 MOL      0.402508
    134 O20        -9.1010    2.5590   -4.2590 oh        1 MOL     -0.539874
    135 H56        -5.3530    3.3030    0.6620 hn        1 MOL      0.223727
    136 H57        -6.4810    1.8860    2.7400 h1        1 MOL      0.051118
    137 H58        -7.4340    3.8680    1.5250 hc        1 MOL      0.084338
    138 H59        -8.6760    2.7170    1.8090 hc        1 MOL      0.084338
    139 H60        -9.3980    1.2630    0.1450 ha        1 MOL      0.148330
    140 H61        -6.9020    4.5730   -0.7570 ha        1 MOL      0.148330
    141 H62       -10.0650    0.9440   -2.2370 ha        1 MOL      0.156125
    142 H63        -7.5240    4.2480   -3.2380 ha        1 MOL      0.156125
    143 H64        -9.7160    1.8330   -4.4110 ho        1 MOL      0.406571
    144 N13        -6.9110   -0.0790    0.1340 n         1 MOL      0.044326
    145 C48        -7.0750   -1.5100   -0.2440 c3        1 MOL     -0.303237
    146 C49        -5.9820   -2.5080    0.2220 c         1 MOL      0.407518
    147 O21        -6.2770   -3.6770    0.4780 o         1 MOL     -0.475369
    148 C50        -7.2510   -1.6800   -1.7620 c3        1 MOL      0.198733
    149 C51        -8.0560   -2.9030   -2.1370 c3        1 MOL     -0.041444
    150 C52        -7.8410   -3.2950   -3.5650 c         1 MOL      0.617748
    151 O22        -8.5330   -2.7190   -4.4320 o         1 MOL     -0.724903
    152 O23        -6.8940   -4.1260   -3.8380 o         1 MOL     -0.724903
    153 H65        -6.6830    0.6650   -0.5160 hn        1 MOL      0.158493
    154 H66        -8.0710   -1.7740    0.1190 h1        1 MOL      0.116521
    155 H67        -6.3130   -1.7410   -2.3120 hc        1 MOL     -0.020110
    156 H68        -7.7610   -0.7640   -2.0780 hc        1 MOL     -0.020110
    157 H69        -9.1120   -2.7470   -1.9380 hc        1 MOL     -0.038947
    158 H70        -7.7590   -3.7380   -1.4970 hc        1 MOL     -0.038947
    159 N14        -4.7570   -2.0070    0.3030 n         1 MOL     -0.043012
    160 C53        -3.5160   -2.7730    0.7190 c3        1 MOL     -0.208566
    161 C54        -3.5150   -3.0750    2.2140 c         1 MOL      0.368572
    162 O24        -3.4310   -4.2460    2.5450 o         1 MOL     -0.506753
    163 C55        -2.2560   -1.9110    0.3840 c3        1 MOL      0.088875
    164 C56        -0.9660   -2.5770    0.9730 c3        1 MOL     -0.232691
    165 C57         0.2760   -1.6690    0.5720 c         1 MOL      0.624797
    166 O25         0.2220   -0.4970    0.8700 o         1 MOL     -0.636399
    167 O26         1.2330   -2.1180   -0.0380 o         1 MOL     -0.636399
    168 H71        -4.6560   -1.0850   -0.1050 hn        1 MOL      0.069222
    169 H72        -3.5720   -3.7770    0.2900 h1        1 MOL      0.140135
    170 H73        -2.4160   -0.9560    0.8790 hc        1 MOL      0.048773
    171 H74        -2.1620   -1.8020   -0.7010 hc        1 MOL      0.048773
    172 H75        -0.8140   -3.6270    0.7240 hc        1 MOL      0.072051
    173 H76        -0.9560   -2.5920    2.0650 hc        1 MOL      0.072051
    174 N15        -3.9480   -2.0900    3.0810 n         1 MOL      0.002355
    175 C58        -4.0700   -2.3070    4.5510 c3        1 MOL     -0.263786
    176 H77        -3.0760   -2.4050    4.9870 h1        1 MOL      0.092722
    177 H78        -4.5830   -1.4590    5.0040 h1        1 MOL      0.092722
    178 H79        -4.6390   -3.2180    4.7380 h1        1 MOL      0.092722
    179 H80        -4.2660   -1.2550    2.6080 hn        1 MOL      0.085621
    180 Ca1         2.6170    0.1720    0.0080 Ca        1 MOL      1.709460
    181 O27         3.1220    0.0340    2.7790 oh        1 MOL     -0.782864
    182 H81         2.5420   -0.5690    3.2310 ho        1 MOL      0.387758
    183 H82         3.8710    0.1410    3.3640 ho        1 MOL      0.387758
    184 O28         5.2840    0.4540    0.8140 oh        1 MOL     -0.782864
    185 H83         5.9970    0.9820    1.1670 ho        1 MOL      0.387758
    186 H84         5.6960   -0.3880    0.6000 ho        1 MOL      0.387758
    187 O29         0.6150    1.2960   -1.4800 oh        1 MOL     -0.782864
    188 H85         1.1490    2.0150   -1.8310 ho        1 MOL      0.387758
    189 H86         0.7360    0.5790   -2.0970 ho        1 MOL      0.387758
@<TRIPOS>BOND
     1    1    2 1   
     2    1    4 1   
     3    1    5 1   
     4    1    6 1   
     5    2    3 2   
     6    2    7 1   
     7    7    8 1   
     8    7   15 1   
     9    8    9 1   
    10    8   11 1   
    11    8   16 1   
    12    9   10 2   
    13    9   19 1   
    14   11   12 1   
    15   11   17 1   
    16   11   18 1   
    17   12   13 1   
    18   12   14 1   
    19   19   20 1   
    20   19   27 1   
    21   20   21 1   
    22   20   23 1   
    23   20   28 1   
    24   21   22 2   
    25   21   38 1   
    26   23   24 1   
    27   23   25 1   
    28   23   29 1   
    29   24   26 1   
    30   24   30 1   
    31   24   31 1   
    32   25   32 1   
    33   25   33 1   
    34   25   34 1   
    35   26   35 1   
    36   26   36 1   
    37   26   37 1   
    38   38   39 1   
    39   38   46 1   
    40   39   40 1   
    41   39   42 1   
    42   39   47 1   
    43   40   41 2   
    44   40   50 1   
    45   42   43 1   
    46   42   48 1   
    47   42   49 1   
    48   43   44 1   
    49   43   45 1   
    50   50   51 1   
    51   50   54 1   
    52   51   52 1   
    53   51   55 1   
    54   51   56 1   
    55   52   53 2   
    56   52   57 1   
    57   57   58 1   
    58   57   65 1   
    59   58   59 1   
    60   58   61 1   
    61   58   66 1   
    62   59   60 2   
    63   59   69 1   
    64   61   62 1   
    65   61   67 1   
    66   61   68 1   
    67   62   63 1   
    68   62   64 1   
    69   69   70 1   
    70   69   73 1   
    71   70   71 1   
    72   70   74 1   
    73   70   75 1   
    74   71   72 2   
    75   71   76 1   
    76   76   77 1   
    77   76   85 1   
    78   77   78 1   
    79   77   80 1   
    80   77   86 1   
    81   78   79 2   
    82   78   93 1   
    83   80   81 1   
    84   80   87 1   
    85   80   88 1   
    86   81   82 1   
    87   81   89 1   
    88   81   90 1   
    89   82   83 1   
    90   82   84 2   
    91   83   91 1   
    92   83   92 1   
    93   93   94 1   
    94   93  100 1   
    95   94   95 1   
    96   94   97 1   
    97   94  101 1   
    98   95   96 2   
    99   95  109 1   
   100   97   98 1   
   101   97   99 1   
   102   97  102 1   
   103   98  103 1   
   104   98  104 1   
   105   98  105 1   
   106   99  106 1   
   107   99  107 1   
   108   99  108 1   
   109  109  110 1   
   110  109  117 1   
   111  110  111 1   
   112  110  113 1   
   113  110  118 1   
   114  111  112 2   
   115  111  123 1   
   116  113  114 1   
   117  113  119 1   
   118  113  120 1   
   119  114  115 1   
   120  114  116 2   
   121  115  121 1   
   122  115  122 1   
   123  123  124 1   
   124  123  135 1   
   125  124  125 1   
   126  124  127 1   
   127  124  136 1   
   128  125  126 2   
   129  125  144 1   
   130  127  128 1   
   131  127  137 1   
   132  127  138 1   
   133  128  129 ar  
   134  128  130 ar  
   135  129  131 ar  
   136  129  139 1   
   137  130  132 ar  
   138  130  140 1   
   139  131  133 ar  
   140  131  141 1   
   141  132  133 ar  
   142  132  142 1   
   143  133  134 1   
   144  134  143 1   
   145  144  145 1   
   146  144  153 1   
   147  145  146 1   
   148  145  148 1   
   149  145  154 1   
   150  146  147 2   
   151  146  159 1   
   152  148  149 1   
   153  148  155 1   
   154  148  156 1   
   155  149  150 1   
   156  149  157 1   
   157  149  158 1   
   158  150  151 1   
   159  150  152 1   
   160  159  160 1   
   161  159  168 1   
   162  160  161 1   
   163  160  163 1   
   164  160  169 1   
   165  161  162 2   
   166  161  174 1   
   167  163  164 1   
   168  163  170 1   
   169  163  171 1   
   170  164  165 1   
   171  164  172 1   
   172  164  173 1   
   173  165  166 1   
   174  165  167 1   
   175  174  175 1   
   176  174  179 1   
   177  175  176 1   
   178  175  177 1   
   179  175  178 1   
   180  181  182 1   
   181  181  183 1   
   182  184  185 1   
   183  184  186 1   
   184  187  188 1   
   185  187  189 1   
@<TRIPOS>SUBSTRUCTURE
     1 MOL         1 TEMP              0 ****  ****    0 ROOT
