@<TRIPOS>MOLECULE
MOL
  189   185     1     0     0
SMALL
resp


@<TRIPOS>ATOM
      1 C1          0.6680    2.4250    5.3790 c3        1 MOL     -0.233360
      2 C2          0.0290    2.2110    4.0310 c         1 MOL      0.667889
      3 O1          0.6640    2.5280    3.0150 o         1 MOL     -0.601881
      4 H1          0.9770    1.4630    5.7910 hc        1 MOL      0.060661
      5 H2          1.5390    3.0690    5.2710 hc        1 MOL      0.060661
      6 H3         -0.0510    2.8940    6.0520 hc        1 MOL      0.060661
      7 N1         -1.3320    1.9430    3.9820 n         1 MOL     -0.620006
      8 C3         -2.1030    1.6730    2.7170 c3        1 MOL      0.302507
      9 C4         -2.6210    2.8580    1.9580 c         1 MOL      0.337983
     10 O2         -3.7590    3.2960    2.0980 o         1 MOL     -0.442777
     11 C5         -3.1970    0.6490    2.9270 c3        1 MOL     -0.120625
     12 C6         -3.9720    0.1760    1.7180 c         1 MOL      0.697800
     13 O3         -5.0950   -0.3360    1.8750 o         1 MOL     -0.663069
     14 O4         -3.4120    0.2400    0.5570 o         1 MOL     -0.663069
     15 H4         -1.8110    1.8260    4.8610 hn        1 MOL      0.323447
     16 H5         -1.3680    1.1130    2.1250 h1        1 MOL      0.014288
     17 H6         -3.8760    1.1740    3.6040 hc        1 MOL      0.008871
     18 H7         -2.7550   -0.1820    3.4730 hc        1 MOL      0.008871
     19 N2         -1.7700    3.4810    1.1050 n         1 MOL     -0.294592
     20 C7         -1.9710    4.9130    0.8120 c3        1 MOL      0.008093
     21 C8         -3.0660    5.0650   -0.2870 c         1 MOL      0.486412
     22 O5         -3.8020    6.0390   -0.2040 o         1 MOL     -0.559414
     23 C9         -0.6330    5.4900    0.2080 c3        1 MOL     -0.369932
     24 C10         0.5230    5.7860    1.1680 c3        1 MOL      0.127704
     25 C11         0.2810    7.0800    1.9980 c3        1 MOL     -0.131360
     26 C12         1.4770    7.6060    2.7980 c3        1 MOL     -0.058616
     27 N3          1.9220    6.7090    3.8560 n4        1 MOL     -0.243286
     28 H8         -0.9090    2.9740    0.9380 hn        1 MOL      0.323248
     29 H9         -2.2690    5.3610    1.7610 h1        1 MOL      0.088249
     30 H10        -0.8930    6.4210   -0.2990 hc        1 MOL      0.114948
     31 H11        -0.2190    4.8510   -0.5770 hc        1 MOL      0.114948
     32 H12         1.4180    5.9550    0.5550 hc        1 MOL      0.014474
     33 H13         0.7150    4.9140    1.7840 hc        1 MOL      0.014474
     34 H14        -0.6080    6.9380    2.6000 hc        1 MOL      0.089825
     35 H15        -0.0420    7.9040    1.3710 hc        1 MOL      0.089825
     36 H16         1.1800    8.5570    3.2410 hx        1 MOL      0.092921
     37 H17         2.2980    7.7790    2.1040 hx        1 MOL      0.092921
     38 H18         1.2190    6.5440    4.5640 hn        1 MOL      0.305819
     39 H19         2.3910    5.8870    3.5090 hn        1 MOL      0.305819
     40 H20         2.6330    7.2250    4.3510 hn        1 MOL      0.305819
     41 N4         -3.0940    4.1630   -1.2430 n         1 MOL     -0.345562
     42 C13        -4.1750    4.0420   -2.2320 c3        1 MOL      0.209251
     43 C14        -5.3640    3.2060   -1.6660 c         1 MOL      0.316357
     44 O6         -6.4210    3.1590   -2.2910 o         1 MOL     -0.521915
     45 C15        -3.6720    3.5520   -3.6180 c3        1 MOL     -0.357471
     46 C16        -2.7570    2.4570   -3.5130 c         1 MOL      0.927202
     47 O7         -1.7880    2.2620   -4.3230 o         1 MOL     -0.748957
     48 O8         -2.9470    1.6050   -2.6550 o         1 MOL     -0.748957
     49 H21        -2.3200    3.5340   -1.3350 hn        1 MOL      0.203024
     50 H22        -4.6470    5.0030   -2.4250 h1        1 MOL      0.055223
     51 H23        -3.0490    4.3590   -4.0200 hc        1 MOL      0.076093
     52 H24        -4.5230    3.3250   -4.2650 hc        1 MOL      0.076093
     53 N5         -5.2630    2.5790   -0.4630 n         1 MOL      0.160363
     54 C17        -6.5120    1.9410    0.0990 c3        1 MOL     -0.154033
     55 C18        -7.2070    0.8250   -0.6160 c         1 MOL      0.484531
     56 O9         -8.4570    0.6880   -0.6120 o         1 MOL     -0.594734
     57 H25        -4.4670    2.6870    0.1450 hn        1 MOL     -0.076640
     58 H26        -7.1170    2.8510    0.1890 h1        1 MOL      0.074571
     59 H27        -6.3060    1.4880    1.0650 h1        1 MOL      0.074571
     60 N6         -6.4190   -0.1130   -1.0410 n         1 MOL     -0.117834
     61 C19        -6.8160   -1.3540   -1.7230 c3        1 MOL      0.023583
     62 C20        -6.9060   -2.5630   -0.8080 c         1 MOL      0.394888
     63 O10        -7.2620   -3.6350   -1.3370 o         1 MOL     -0.513998
     64 C21        -5.9040   -1.5440   -2.9780 c3        1 MOL     -0.205194
     65 C22        -4.3830   -1.6430   -2.7340 c         1 MOL      0.668524
     66 O11        -3.9920   -2.2330   -1.7080 o         1 MOL     -0.657913
     67 O12        -3.5870   -1.0890   -3.5400 o         1 MOL     -0.657913
     68 H28        -5.4410    0.0130   -0.8410 hn        1 MOL      0.029081
     69 H29        -7.8430   -1.2420   -2.0550 h1        1 MOL      0.094648
     70 H30        -6.0810   -0.7180   -3.6640 hc        1 MOL      0.069249
     71 H31        -6.2780   -2.4580   -3.4430 hc        1 MOL      0.069249
     72 N7         -6.4670   -2.3990    0.4880 n         1 MOL     -0.235655
     73 C23        -6.5890   -3.4500    1.3780 c3        1 MOL     -0.213383
     74 C24        -5.3220   -4.3240    1.4830 c         1 MOL      0.549022
     75 O13        -5.2720   -5.2510    2.2700 o         1 MOL     -0.594769
     76 H32        -6.2130   -1.4780    0.8020 hn        1 MOL      0.295072
     77 H33        -7.4220   -4.0510    1.0250 h1        1 MOL      0.108077
     78 H34        -6.8020   -3.0490    2.3710 h1        1 MOL      0.108077
     79 N8         -4.2640   -3.9630    0.7410 n         1 MOL     -0.100989
     80 C25        -2.9240   -4.6510    0.7560 c3        1 MOL     -0.317566
     81 C26        -1.8200   -3.6000    0.8920 c         1 MOL      0.588214
     82 O14        -1.9080   -2.4980    0.3250 o         1 MOL     -0.699017
     83 C27        -2.7420   -5.4110   -0.5370 c3        1 MOL      0.506698
     84 C28        -3.5090   -6.6410   -0.4960 c3        1 MOL     -0.340629
     85 O15        -3.1950   -4.7900   -1.7520 oh        1 MOL     -0.638582
     86 H35        -4.4380   -3.2830    0.0050 hn        1 MOL      0.108441
     87 H36        -2.7960   -5.3470    1.5800 h1        1 MOL      0.150622
     88 H37        -1.7030   -5.7160   -0.6170 h1        1 MOL     -0.050458
     89 H38        -3.4970   -3.9410   -1.4270 ho        1 MOL      0.440897
     90 H39        -3.3180   -7.2930   -1.3450 hc        1 MOL      0.081381
     91 H40        -3.1990   -7.1460    0.4130 hc        1 MOL      0.081381
     92 H41        -4.5700   -6.3970   -0.5590 hc        1 MOL      0.081381
     93 N9         -0.7710   -3.8800    1.6200 n         1 MOL     -0.458236
     94 C29         0.5090   -3.1150    1.8020 c3        1 MOL     -0.056422
     95 C30         1.6320   -3.6620    1.0420 c         1 MOL      0.515243
     96 O16         2.0820   -4.7850    1.1510 o         1 MOL     -0.562142
     97 C31         0.6750   -3.0760    3.3710 c3        1 MOL      0.112572
     98 C32        -0.4610   -2.2840    4.0520 c3        1 MOL      0.341876
     99 C33         1.9870   -2.4360    3.8640 c3        1 MOL     -0.734359
    100 C34        -0.3380   -2.2200    5.5630 c3        1 MOL     -0.246304
    101 H42        -0.9010   -4.6780    2.2290 hn        1 MOL      0.267848
    102 H43         0.1930   -2.1240    1.4850 h1        1 MOL      0.119080
    103 H44         0.4610   -4.0620    3.7680 hc        1 MOL      0.026142
    104 H45        -1.4040   -2.8240    3.9800 hc        1 MOL     -0.050641
    105 H46        -0.6680   -1.2870    3.6780 hc        1 MOL     -0.050641
    106 H47         2.0910   -2.5650    4.9410 hc        1 MOL      0.188980
    107 H48         2.7540   -3.0030    3.3250 hc        1 MOL      0.188980
    108 H49         2.0150   -1.3740    3.6050 hc        1 MOL      0.188980
    109 H50        -0.2760   -3.2180    5.9950 hc        1 MOL      0.046377
    110 H51         0.5480   -1.6760    5.8750 hc        1 MOL      0.046377
    111 H52        -1.1750   -1.7230    6.0590 hc        1 MOL      0.046377
    112 N10         2.1920   -2.8020    0.2210 n         1 MOL     -0.089766
    113 C35         3.4000   -3.1450   -0.6330 c3        1 MOL     -0.137251
    114 C36         4.7850   -2.8600    0.0200 c         1 MOL      0.537605
    115 O17         4.8420   -2.1170    0.9920 o         1 MOL     -0.469934
    116 C37         3.3270   -2.4010   -1.9670 c3        1 MOL      0.080246
    117 C38         2.1140   -2.7300   -2.7840 c3        1 MOL     -0.340379
    118 O18         3.4930   -1.0390   -1.8270 oh        1 MOL     -0.428499
    119 H53         1.7940   -1.9040    0.0110 hn        1 MOL      0.249787
    120 H54         3.2840   -4.2120   -0.7880 h1        1 MOL      0.094333
    121 H55         4.1860   -2.7620   -2.5390 h1        1 MOL      0.043494
    122 H56         2.6530   -0.6300   -2.0290 ho        1 MOL      0.387370
    123 H57         2.0240   -2.0850   -3.6540 hc        1 MOL      0.105657
    124 H58         2.0160   -3.7990   -2.9980 hc        1 MOL      0.105657
    125 H59         1.2830   -2.3760   -2.1700 hc        1 MOL      0.105657
    126 N11         5.8800   -3.3540   -0.6230 n         1 MOL     -0.431532
    127 C39         7.2360   -3.0130   -0.0430 c3        1 MOL     -0.083569
    128 C40         7.3930   -1.5030   -0.1030 c         1 MOL      0.352306
    129 O19         7.9500   -0.8230    0.7860 o         1 MOL     -0.477879
    130 C41         8.3850   -3.6640   -0.6690 c3        1 MOL      0.228892
    131 C42         8.4090   -5.0550   -0.0410 c3        1 MOL     -0.247298
    132 O20         8.4020   -3.6850   -2.0660 oh        1 MOL     -0.589602
    133 H60         5.7930   -3.9930   -1.4020 hn        1 MOL      0.323887
    134 H61         7.1640   -3.1890    1.0270 h1        1 MOL      0.158855
    135 H62         9.2180   -3.1110   -0.2440 h1        1 MOL      0.044985
    136 H63         9.2450   -4.0990   -2.2860 ho        1 MOL      0.413421
    137 H64         7.5810   -5.6510   -0.4060 hc        1 MOL      0.072076
    138 H65         9.3330   -5.5860   -0.2720 hc        1 MOL      0.072076
    139 H66         8.3540   -5.0580    1.0410 hc        1 MOL      0.072076
    140 N12         6.8540   -0.8970   -1.1640 n         1 MOL     -0.203674
    141 C43         6.9250    0.5400   -1.4000 c3        1 MOL     -0.005424
    142 C44         6.1700    1.4010   -0.3880 c         1 MOL      0.219593
    143 O21         6.6360    2.4540    0.0410 o         1 MOL     -0.528869
    144 C45         6.4220    0.7900   -2.8460 c3        1 MOL      0.031379
    145 C46         6.2900    2.2670   -3.1400 c3        1 MOL      0.021649
    146 C47         6.0720    2.3740   -4.6640 c3        1 MOL     -0.054898
    147 C48         5.4100    3.6670   -5.2870 c3        1 MOL      0.004135
    148 N13         6.4640    4.6930   -5.3150 n4        1 MOL     -0.242367
    149 H67         6.6690   -1.5550   -1.9110 hn        1 MOL      0.211190
    150 H68         7.9900    0.7730   -1.3070 h1        1 MOL      0.105004
    151 H69         5.4720    0.2960   -3.0510 hc        1 MOL      0.008379
    152 H70         7.1740    0.3400   -3.5020 hc        1 MOL      0.008379
    153 H71         7.2700    2.6640   -2.8860 hc        1 MOL      0.007147
    154 H72         5.4170    2.6370   -2.5950 hc        1 MOL      0.007147
    155 H73         5.3190    1.6040   -4.8190 hc        1 MOL      0.038951
    156 H74         6.9850    2.1190   -5.1860 hc        1 MOL      0.038951
    157 H75         4.4930    3.9540   -4.7630 hx        1 MOL      0.095396
    158 H76         5.1590    3.4960   -6.3290 hx        1 MOL      0.095396
    159 H77         7.3250    4.3240   -5.6660 hn        1 MOL      0.275842
    160 H78         6.0610    5.5360   -5.7150 hn        1 MOL      0.275842
    161 H79         6.6470    4.9490   -4.3530 hn        1 MOL      0.275842
    162 N14         5.0120    0.9330    0.0350 n         1 MOL      0.218738
    163 C49         4.2290    1.4920    1.0850 c3        1 MOL     -0.111180
    164 C50         4.7540    1.3400    2.5390 c         1 MOL      0.455374
    165 O22         4.4310    2.1210    3.4470 o         1 MOL     -0.551553
    166 C51         2.8270    0.8540    1.1060 c3        1 MOL      0.091352
    167 C52         1.8430    1.5680    0.1540 c3        1 MOL     -0.166505
    168 C53         0.6710    0.7640   -0.3180 c         1 MOL      0.809151
    169 O23         0.6410   -0.4340   -0.6860 o         1 MOL     -0.811588
    170 O24        -0.4120    1.3440   -0.3690 o         1 MOL     -0.811588
    171 H80         4.6750    0.0700   -0.3760 hn        1 MOL     -0.096365
    172 H81         4.2260    2.5580    0.8470 h1        1 MOL      0.049869
    173 H82         2.4020    0.7730    2.1060 hc        1 MOL     -0.022170
    174 H83         2.9550   -0.1760    0.7780 hc        1 MOL     -0.022170
    175 H84         2.4110    1.8410   -0.7370 hc        1 MOL      0.024603
    176 H85         1.5480    2.4860    0.6590 hc        1 MOL      0.024603
    177 N15         5.6700    0.3290    2.6790 n         1 MOL     -0.128714
    178 C54         6.4000    0.1390    3.8960 c3        1 MOL     -0.263340
    179 H86         5.7230   -0.2170    4.6720 h1        1 MOL      0.101877
    180 H87         7.1880   -0.5960    3.7370 h1        1 MOL      0.101877
    181 H88         6.8420    1.0860    4.2060 h1        1 MOL      0.101877
    182 H89         5.8700   -0.2490    1.8730 hn        1 MOL      0.204107
    183 Ca1        -1.8640   -0.5670   -1.4070 Ca        1 MOL      1.813800
    184 O25        -0.2420    0.1910   -3.4550 oh        1 MOL     -0.818343
    185 H90        -0.7370    0.7690   -4.0370 ho        1 MOL      0.381533
    186 H91         0.6610    0.4950   -3.5390 ho        1 MOL      0.381533
    187 O26        -1.1700   -2.8880   -2.8410 oh        1 MOL     -0.818343
    188 H92        -0.5620   -3.4230   -3.3480 ho        1 MOL      0.381533
    189 H93        -1.9510   -3.4310   -2.7340 ho        1 MOL      0.381533
@<TRIPOS>BOND
     1    1    2 1   
     2    1    4 1   
     3    1    5 1   
     4    1    6 1   
     5    2    3 2   
     6    2    7 1   
     7    7    8 1   
     8    7   15 1   
     9    8    9 1   
    10    8   11 1   
    11    8   16 1   
    12    9   10 2   
    13    9   19 1   
    14   11   12 1   
    15   11   17 1   
    16   11   18 1   
    17   12   13 1   
    18   12   14 1   
    19   19   20 1   
    20   19   28 1   
    21   20   21 1   
    22   20   23 1   
    23   20   29 1   
    24   21   22 2   
    25   21   41 1   
    26   23   24 1   
    27   23   30 1   
    28   23   31 1   
    29   24   25 1   
    30   24   32 1   
    31   24   33 1   
    32   25   26 1   
    33   25   34 1   
    34   25   35 1   
    35   26   27 1   
    36   26   36 1   
    37   26   37 1   
    38   27   38 1   
    39   27   39 1   
    40   27   40 1   
    41   41   42 1   
    42   41   49 1   
    43   42   43 1   
    44   42   45 1   
    45   42   50 1   
    46   43   44 2   
    47   43   53 1   
    48   45   46 1   
    49   45   51 1   
    50   45   52 1   
    51   46   47 1   
    52   46   48 1   
    53   53   54 1   
    54   53   57 1   
    55   54   55 1   
    56   54   58 1   
    57   54   59 1   
    58   55   56 2   
    59   55   60 1   
    60   60   61 1   
    61   60   68 1   
    62   61   62 1   
    63   61   64 1   
    64   61   69 1   
    65   62   63 2   
    66   62   72 1   
    67   64   65 1   
    68   64   70 1   
    69   64   71 1   
    70   65   66 1   
    71   65   67 1   
    72   72   73 1   
    73   72   76 1   
    74   73   74 1   
    75   73   77 1   
    76   73   78 1   
    77   74   75 2   
    78   74   79 1   
    79   79   80 1   
    80   79   86 1   
    81   80   81 1   
    82   80   83 1   
    83   80   87 1   
    84   81   82 2   
    85   81   93 1   
    86   83   84 1   
    87   83   85 1   
    88   83   88 1   
    89   84   90 1   
    90   84   91 1   
    91   84   92 1   
    92   85   89 1   
    93   93   94 1   
    94   93  101 1   
    95   94   95 1   
    96   94   97 1   
    97   94  102 1   
    98   95   96 2   
    99   95  112 1   
   100   97   98 1   
   101   97   99 1   
   102   97  103 1   
   103   98  100 1   
   104   98  104 1   
   105   98  105 1   
   106   99  106 1   
   107   99  107 1   
   108   99  108 1   
   109  100  109 1   
   110  100  110 1   
   111  100  111 1   
   112  112  113 1   
   113  112  119 1   
   114  113  114 1   
   115  113  116 1   
   116  113  120 1   
   117  114  115 2   
   118  114  126 1   
   119  116  117 1   
   120  116  118 1   
   121  116  121 1   
   122  117  123 1   
   123  117  124 1   
   124  117  125 1   
   125  118  122 1   
   126  126  127 1   
   127  126  133 1   
   128  127  128 1   
   129  127  130 1   
   130  127  134 1   
   131  128  129 2   
   132  128  140 1   
   133  130  131 1   
   134  130  132 1   
   135  130  135 1   
   136  131  137 1   
   137  131  138 1   
   138  131  139 1   
   139  132  136 1   
   140  140  141 1   
   141  140  149 1   
   142  141  142 1   
   143  141  144 1   
   144  141  150 1   
   145  142  143 2   
   146  142  162 1   
   147  144  145 1   
   148  144  151 1   
   149  144  152 1   
   150  145  146 1   
   151  145  153 1   
   152  145  154 1   
   153  146  147 1   
   154  146  155 1   
   155  146  156 1   
   156  147  148 1   
   157  147  157 1   
   158  147  158 1   
   159  148  159 1   
   160  148  160 1   
   161  148  161 1   
   162  162  163 1   
   163  162  171 1   
   164  163  164 1   
   165  163  166 1   
   166  163  172 1   
   167  164  165 2   
   168  164  177 1   
   169  166  167 1   
   170  166  173 1   
   171  166  174 1   
   172  167  168 1   
   173  167  175 1   
   174  167  176 1   
   175  168  169 1   
   176  168  170 1   
   177  177  178 1   
   178  177  182 1   
   179  178  179 1   
   180  178  180 1   
   181  178  181 1   
   182  184  185 1   
   183  184  186 1   
   184  187  188 1   
   185  187  189 1   
@<TRIPOS>SUBSTRUCTURE
     1 MOL         1 TEMP              0 ****  ****    0 ROOT
