@<TRIPOS>MOLECULE
MOL
  183   181     1     0     0
SMALL
resp


@<TRIPOS>ATOM
      1 C1          0.0700    1.8260    5.9300 c3        1 MOL     -0.321782
      2 C2         -0.2780    1.8260    4.4670 c         1 MOL      0.859724
      3 O1          0.3980    2.4660    3.7080 o         1 MOL     -0.636293
      4 H1          0.9320    1.1800    6.0980 hc        1 MOL      0.064734
      5 H2          0.3100    2.8400    6.2480 hc        1 MOL      0.064734
      6 H3         -0.7780    1.4560    6.5060 hc        1 MOL      0.064734
      7 N1         -1.3690    1.2120    4.0790 n         1 MOL     -0.662625
      8 C3         -2.0170    1.4000    2.7620 c3        1 MOL      0.307262
      9 C4         -2.4450    2.8060    2.4580 c         1 MOL      0.520795
     10 O2         -3.2030    3.3220    3.1960 o         1 MOL     -0.561642
     11 C5         -3.2090    0.4090    2.8540 c3        1 MOL     -0.215855
     12 C6         -4.0940    0.3250    1.6340 c         1 MOL      0.877808
     13 O3         -5.2180   -0.2220    1.6720 o         1 MOL     -0.745067
     14 O4         -3.6220    0.7140    0.5350 o         1 MOL     -0.745067
     15 H4         -1.9510    0.7440    4.7630 hn        1 MOL      0.305286
     16 H5         -1.2520    1.1510    2.0290 h1        1 MOL     -0.108355
     17 H6         -3.8710    0.7830    3.6310 hc        1 MOL      0.020362
     18 H7         -2.9430   -0.6070    3.1510 hc        1 MOL      0.020362
     19 N2         -1.9460    3.3620    1.3080 n         1 MOL     -0.389600
     20 C7         -2.1970    4.7910    0.9150 c3        1 MOL     -0.045361
     21 C8         -3.4830    4.9140    0.0260 c         1 MOL      0.512929
     22 O5         -4.0170    5.9910   -0.1700 o         1 MOL     -0.597389
     23 C9         -0.8340    5.3710    0.3240 c3        1 MOL      0.439382
     24 C10         0.4140    5.0830    1.2240 c3        1 MOL     -0.223242
     25 C11        -1.0720    6.8720   -0.0570 c3        1 MOL     -0.243093
     26 C12         1.7430    5.6030    0.6880 c3        1 MOL     -0.018109
     27 H8         -1.4210    2.7970    0.6580 hn        1 MOL      0.264814
     28 H9         -2.3040    5.3510    1.8470 h1        1 MOL      0.041434
     29 H10        -0.7010    4.8390   -0.6240 hc        1 MOL     -0.043621
     30 H11         0.6340    4.0310    1.4370 hc        1 MOL      0.046706
     31 H12         0.1820    5.5160    2.2040 hc        1 MOL      0.046706
     32 H13        -0.1580    7.2370   -0.5350 hc        1 MOL      0.031385
     33 H14        -1.8230    7.0260   -0.8210 hc        1 MOL      0.031385
     34 H15        -1.2650    7.5070    0.8120 hc        1 MOL      0.031385
     35 H16         1.9180    5.2470   -0.3300 hc        1 MOL      0.008386
     36 H17         1.6950    6.6820    0.4970 hc        1 MOL      0.008386
     37 H18         2.5650    5.5480    1.3940 hc        1 MOL      0.008386
     38 N3         -3.9250    3.8130   -0.5320 n         1 MOL     -0.466024
     39 C13        -4.9910    3.8920   -1.5170 c3        1 MOL      0.402740
     40 C14        -6.1890    2.9760   -1.1600 c         1 MOL      0.316343
     41 O6         -7.1870    3.0470   -1.8440 o         1 MOL     -0.526083
     42 C15        -4.4860    3.6620   -2.9260 c3        1 MOL     -0.485376
     43 C16        -3.5970    2.4630   -3.1410 c         1 MOL      0.967890
     44 O7         -2.9900    2.2770   -4.2230 o         1 MOL     -0.756130
     45 O8         -3.5950    1.4660   -2.4080 o         1 MOL     -0.756130
     46 H19        -3.4960    2.9230   -0.3220 hn        1 MOL      0.242899
     47 H20        -5.4720    4.8680   -1.5220 h1        1 MOL      0.038116
     48 H21        -3.9290    4.5320   -3.2630 hc        1 MOL      0.095175
     49 H22        -5.3900    3.4560   -3.5050 hc        1 MOL      0.095175
     50 N4         -6.2160    2.3530    0.0160 n         1 MOL     -0.211947
     51 C17        -7.3680    1.9230    0.6540 c3        1 MOL     -0.198172
     52 C18        -7.9630    0.6040    0.1770 c         1 MOL      0.499010
     53 O9         -9.1770    0.3170    0.3690 o         1 MOL     -0.603175
     54 H23        -5.3790    2.3400    0.5700 hn        1 MOL      0.224311
     55 H24        -8.1400    2.6920    0.6560 h1        1 MOL      0.093525
     56 H25        -7.0960    1.7350    1.6890 h1        1 MOL      0.093525
     57 N5         -7.2090   -0.1210   -0.6730 n         1 MOL     -0.255492
     58 C19        -7.5860   -1.4560   -1.1840 c3        1 MOL      0.098863
     59 C20        -7.5580   -2.5210   -0.0650 c         1 MOL      0.505519
     60 O10        -8.3300   -3.4540   -0.1890 o         1 MOL     -0.602834
     61 C21        -6.7620   -1.9250   -2.3610 c3        1 MOL     -0.392844
     62 C22        -5.2150   -1.7050   -2.2750 c         1 MOL      0.737533
     63 O11        -4.5390   -1.3700   -3.3030 o         1 MOL     -0.704088
     64 O12        -4.6950   -1.7010   -1.1630 o         1 MOL     -0.704088
     65 H26        -6.2150    0.0850   -0.6570 hn        1 MOL      0.280824
     66 H27        -8.6490   -1.5060   -1.4120 h1        1 MOL      0.067687
     67 H28        -7.0760   -1.3580   -3.2370 hc        1 MOL      0.088478
     68 H29        -6.9730   -2.9870   -2.5010 hc        1 MOL      0.088478
     69 N6         -6.9070   -2.3520    1.0490 n         1 MOL     -0.263322
     70 C23        -6.7010   -3.3910    2.0340 c3        1 MOL     -0.087542
     71 C24        -5.4940   -4.2200    1.8770 c         1 MOL      0.585729
     72 O13        -5.4550   -5.2380    2.5070 o         1 MOL     -0.617311
     73 H30        -6.3930   -1.5020    1.2120 hn        1 MOL      0.235665
     74 H31        -7.5270   -4.0890    2.1800 h1        1 MOL      0.060023
     75 H32        -6.5320   -2.9570    3.0220 h1        1 MOL      0.060023
     76 N7         -4.5670   -3.8060    1.0370 n         1 MOL     -0.184405
     77 C25        -3.1860   -4.4100    0.9690 c3        1 MOL     -0.062857
     78 C26        -2.0680   -3.3780    1.0830 c         1 MOL      0.616109
     79 O14        -2.2810   -2.1610    0.8080 o         1 MOL     -0.640658
     80 C27        -2.9870   -5.4610   -0.2060 c3        1 MOL     -0.036140
     81 C28        -3.0260   -4.8590   -1.6400 c3        1 MOL     -0.128337
     82 C29        -1.7120   -4.1460   -2.0830 c         1 MOL      0.448056
     83 N8         -0.7700   -4.8840   -2.5810 n         1 MOL     -0.594923
     84 O15        -1.5780   -2.9250   -1.9640 o         1 MOL     -0.511881
     85 H33        -4.7150   -2.9260    0.5700 hn        1 MOL      0.165888
     86 H34        -3.1240   -4.9470    1.9160 h1        1 MOL      0.029897
     87 H35        -3.7880   -6.1850   -0.0870 hc        1 MOL      0.025550
     88 H36        -2.0130   -5.9490   -0.1540 hc        1 MOL      0.025550
     89 H37        -3.8310   -4.1270   -1.7610 hc        1 MOL      0.054923
     90 H38        -3.2440   -5.7390   -2.2430 hc        1 MOL      0.054923
     91 H39        -0.8440   -5.8710   -2.7860 hn        1 MOL      0.312489
     92 H40        -0.0100   -4.3800   -3.0000 hn        1 MOL      0.312489
     93 N9         -0.8120   -3.7780    1.4630 n         1 MOL     -0.408954
     94 C30         0.2790   -2.8400    1.6780 c3        1 MOL      0.088351
     95 C31         1.4440   -3.2910    0.7500 c         1 MOL      0.272764
     96 O16         2.0920   -4.3190    1.0950 o         1 MOL     -0.553584
     97 C32         0.6130   -2.7450    3.1560 c3        1 MOL      0.189679
     98 C33         1.8640   -1.8900    3.5770 c3        1 MOL     -0.377284
     99 C34        -0.4850   -2.0610    3.9100 c3        1 MOL     -0.377284
    100 H41        -0.6740   -4.7450    1.7290 hn        1 MOL      0.278736
    101 H42         0.0420   -1.8120    1.3810 h1        1 MOL      0.096934
    102 H43         0.7040   -3.7630    3.5370 hc        1 MOL     -0.012191
    103 H44         1.7440   -0.8120    3.4520 hc        1 MOL      0.085931
    104 H45         2.1320   -2.0920    4.6130 hc        1 MOL      0.085931
    105 H46         2.6590   -2.0950    2.8590 hc        1 MOL      0.085931
    106 H47        -0.4800   -1.0190    3.5950 hc        1 MOL      0.085931
    107 H48        -1.4970   -2.3360    3.6150 hc        1 MOL      0.085931
    108 H49        -0.2790   -2.0610    4.9800 hc        1 MOL      0.085931
    109 N10         1.7600   -2.4350   -0.2230 n         1 MOL     -0.040221
    110 C35         3.0150   -2.7070   -1.0580 c3        1 MOL      0.080138
    111 C36         4.3270   -2.3040   -0.2410 c         1 MOL      0.347577
    112 O17         4.1980   -1.6720    0.7650 o         1 MOL     -0.160531
    113 C37         2.9860   -2.0640   -2.4160 c3        1 MOL     -0.519366
    114 C38         1.8000   -2.3120   -3.3000 c         1 MOL      0.752614
    115 N11         1.0150   -1.3340   -3.7240 n         1 MOL     -0.804621
    116 O18         1.4010   -3.4400   -3.5530 o         1 MOL     -0.608234
    117 H50         1.1290   -1.6890   -0.4770 hn        1 MOL      0.148167
    118 H51         3.0230   -3.7610   -1.3070 h1        1 MOL      0.064442
    119 H52         3.7540   -2.5700   -2.9920 hc        1 MOL      0.149264
    120 H53         3.0560   -0.9810   -2.3300 hc        1 MOL      0.149264
    121 H54         1.2180   -0.3560   -3.5560 hn        1 MOL      0.393898
    122 H55         0.1190   -1.5800   -4.1170 hn        1 MOL      0.393898
    123 N12         5.5110   -2.4600   -0.8650 n         1 MOL     -0.543752
    124 C39         6.8260   -2.0410   -0.2920 c3        1 MOL      0.153157
    125 C40         7.0280   -0.5810   -0.0840 c         1 MOL      0.647864
    126 O19         7.4980   -0.1900    0.9870 o         1 MOL     -0.520953
    127 C41         7.9220   -2.5630   -1.1800 c3        1 MOL     -0.088220
    128 C42         9.3520   -2.0520   -0.8470 ca        1 MOL     -0.141883
    129 C43         9.9880   -2.3390    0.3980 ca        1 MOL     -0.067418
    130 C44         9.9000   -0.9960   -1.6140 ca        1 MOL     -0.067418
    131 C45        11.1220   -1.7210    0.8290 ca        1 MOL     -0.319774
    132 C46        11.1460   -0.4270   -1.2400 ca        1 MOL     -0.319774
    133 C47        11.7410   -0.7450    0.0030 ca        1 MOL      0.424498
    134 O20        12.9060   -0.2220    0.4050 oh        1 MOL     -0.505047
    135 H56         5.5380   -2.6310   -1.8540 hn        1 MOL      0.277111
    136 H57         6.8350   -2.4970    0.7000 h1        1 MOL      0.059309
    137 H58         7.7140   -2.1990   -2.1800 hc        1 MOL      0.049332
    138 H59         8.0070   -3.6530   -1.1740 hc        1 MOL      0.049332
    139 H60         9.4560   -3.0620    0.9980 ha        1 MOL      0.117887
    140 H61         9.4460   -0.7240   -2.5550 ha        1 MOL      0.117887
    141 H62        11.5420   -2.0720    1.7620 ha        1 MOL      0.152146
    142 H63        11.5710    0.3210   -1.8890 ha        1 MOL      0.152146
    143 H64        13.3740    0.2950   -0.2450 ho        1 MOL      0.361916
    144 N13         6.5060    0.2850   -0.9900 n         1 MOL     -0.436726
    145 C48         6.5280    1.7620   -0.8540 c3        1 MOL      0.078187
    146 C49         5.5700    2.2350    0.3800 c         1 MOL      0.299576
    147 O21         5.8770    3.1800    1.1380 o         1 MOL     -0.509589
    148 C50         6.1260    2.5530   -2.1060 c3        1 MOL      0.007621
    149 C51         4.7490    2.4420   -2.6500 c3        1 MOL     -0.069133
    150 C52         4.4730    3.1420   -4.0330 c         1 MOL      0.669860
    151 O22         5.3930    3.1630   -4.8700 o         1 MOL     -0.712169
    152 O23         3.3190    3.5750   -4.3130 o         1 MOL     -0.712169
    153 H65         6.2630   -0.0660   -1.9100 hn        1 MOL      0.270845
    154 H66         7.5330    2.0840   -0.5520 h1        1 MOL      0.027201
    155 H67         6.8350    2.2610   -2.8800 hc        1 MOL     -0.009764
    156 H68         6.3390    3.5930   -1.8670 hc        1 MOL     -0.009764
    157 H69         4.1340    2.8110   -1.8250 hc        1 MOL     -0.034001
    158 H70         4.5430    1.3770   -2.7980 hc        1 MOL     -0.034001
    159 N14         4.4670    1.4750    0.5510 n         1 MOL      0.015990
    160 C53         3.4400    1.6970    1.5480 c3        1 MOL      0.045743
    161 C54         3.9860    1.2860    2.9160 c         1 MOL      0.368603
    162 O24         3.8290    1.9650    3.9190 o         1 MOL     -0.555222
    163 C55         2.1660    1.0040    1.0870 c3        1 MOL      0.538431
    164 C56         1.6150    1.5130   -0.2960 c3        1 MOL     -0.121655
    165 C57         0.2130    1.0270   -0.6780 c         1 MOL      0.743822
    166 O25        -0.7140    1.8480   -0.8480 o         1 MOL     -0.720908
    167 O26        -0.0170   -0.2050   -0.8540 o         1 MOL     -0.720908
    168 H71         4.4670    0.6500   -0.0360 hn        1 MOL      0.055775
    169 H72         3.3450    2.7800    1.5850 h1        1 MOL      0.049576
    170 H73         1.3350    1.2680    1.7370 hc        1 MOL     -0.133388
    171 H74         2.2630   -0.0810    1.0170 hc        1 MOL     -0.133388
    172 H75         2.3360    1.3130   -1.0860 hc        1 MOL     -0.023392
    173 H76         1.5230    2.5730   -0.0560 hc        1 MOL     -0.023392
    174 N15         4.6200    0.1650    2.9770 n         1 MOL      0.130205
    175 C58         5.4410   -0.2660    4.1220 c3        1 MOL     -0.461428
    176 H77         6.0520   -1.1190    3.8280 h1        1 MOL      0.140644
    177 H78         6.0870    0.5530    4.4350 h1        1 MOL      0.140644
    178 H79         4.7910   -0.5530    4.9480 h1        1 MOL      0.140644
    179 H80         4.7640   -0.3050    2.1000 hn        1 MOL     -0.141401
    180 Ca1        -2.5130   -0.5210   -1.3970 Ca        1 MOL      1.711355
    181 O27        -2.0780   -0.0940   -3.9710 oh        1 MOL     -0.915197
    182 H81        -2.4100    0.8040   -3.9510 ho        1 MOL      0.420925
    183 H82        -2.1840   -0.3770   -4.8730 ho        1 MOL      0.420925
@<TRIPOS>BOND
     1    1    2 1   
     2    1    4 1   
     3    1    5 1   
     4    1    6 1   
     5    2    3 2   
     6    2    7 1   
     7    7    8 1   
     8    7   15 1   
     9    8    9 1   
    10    8   11 1   
    11    8   16 1   
    12    9   10 2   
    13    9   19 1   
    14   11   12 1   
    15   11   17 1   
    16   11   18 1   
    17   12   13 1   
    18   12   14 1   
    19   19   20 1   
    20   19   27 1   
    21   20   21 1   
    22   20   23 1   
    23   20   28 1   
    24   21   22 2   
    25   21   38 1   
    26   23   24 1   
    27   23   25 1   
    28   23   29 1   
    29   24   26 1   
    30   24   30 1   
    31   24   31 1   
    32   25   32 1   
    33   25   33 1   
    34   25   34 1   
    35   26   35 1   
    36   26   36 1   
    37   26   37 1   
    38   38   39 1   
    39   38   46 1   
    40   39   40 1   
    41   39   42 1   
    42   39   47 1   
    43   40   41 2   
    44   40   50 1   
    45   42   43 1   
    46   42   48 1   
    47   42   49 1   
    48   43   44 1   
    49   43   45 1   
    50   50   51 1   
    51   50   54 1   
    52   51   52 1   
    53   51   55 1   
    54   51   56 1   
    55   52   53 2   
    56   52   57 1   
    57   57   58 1   
    58   57   65 1   
    59   58   59 1   
    60   58   61 1   
    61   58   66 1   
    62   59   60 2   
    63   59   69 1   
    64   61   62 1   
    65   61   67 1   
    66   61   68 1   
    67   62   63 1   
    68   62   64 1   
    69   69   70 1   
    70   69   73 1   
    71   70   71 1   
    72   70   74 1   
    73   70   75 1   
    74   71   72 2   
    75   71   76 1   
    76   76   77 1   
    77   76   85 1   
    78   77   78 1   
    79   77   80 1   
    80   77   86 1   
    81   78   79 2   
    82   78   93 1   
    83   80   81 1   
    84   80   87 1   
    85   80   88 1   
    86   81   82 1   
    87   81   89 1   
    88   81   90 1   
    89   82   83 1   
    90   82   84 2   
    91   83   91 1   
    92   83   92 1   
    93   93   94 1   
    94   93  100 1   
    95   94   95 1   
    96   94   97 1   
    97   94  101 1   
    98   95   96 2   
    99   95  109 1   
   100   97   98 1   
   101   97   99 1   
   102   97  102 1   
   103   98  103 1   
   104   98  104 1   
   105   98  105 1   
   106   99  106 1   
   107   99  107 1   
   108   99  108 1   
   109  109  110 1   
   110  109  117 1   
   111  110  111 1   
   112  110  113 1   
   113  110  118 1   
   114  111  112 2   
   115  111  123 1   
   116  113  114 1   
   117  113  119 1   
   118  113  120 1   
   119  114  115 1   
   120  114  116 2   
   121  115  121 1   
   122  115  122 1   
   123  123  124 1   
   124  123  135 1   
   125  124  125 1   
   126  124  127 1   
   127  124  136 1   
   128  125  126 2   
   129  125  144 1   
   130  127  128 1   
   131  127  137 1   
   132  127  138 1   
   133  128  129 ar  
   134  128  130 ar  
   135  129  131 ar  
   136  129  139 1   
   137  130  132 ar  
   138  130  140 1   
   139  131  133 ar  
   140  131  141 1   
   141  132  133 ar  
   142  132  142 1   
   143  133  134 1   
   144  134  143 1   
   145  144  145 1   
   146  144  153 1   
   147  145  146 1   
   148  145  148 1   
   149  145  154 1   
   150  146  147 2   
   151  146  159 1   
   152  148  149 1   
   153  148  155 1   
   154  148  156 1   
   155  149  150 1   
   156  149  157 1   
   157  149  158 1   
   158  150  151 1   
   159  150  152 1   
   160  159  160 1   
   161  159  168 1   
   162  160  161 1   
   163  160  163 1   
   164  160  169 1   
   165  161  162 2   
   166  161  174 1   
   167  163  164 1   
   168  163  170 1   
   169  163  171 1   
   170  164  165 1   
   171  164  172 1   
   172  164  173 1   
   173  165  166 1   
   174  165  167 1   
   175  174  175 1   
   176  174  179 1   
   177  175  176 1   
   178  175  177 1   
   179  175  178 1   
   180  181  182 1   
   181  181  183 1   
@<TRIPOS>SUBSTRUCTURE
     1 MOL         1 TEMP              0 ****  ****    0 ROOT
