@<TRIPOS>MOLECULE
MOL
  189   185     1     0     0
SMALL
resp


@<TRIPOS>ATOM
      1 C1          0.0550   -3.9300    6.1350 c3        1 MOL     -0.356020
      2 C2          0.3720   -3.4350    4.7180 c         1 MOL      0.753899
      3 O1          0.6810   -2.2290    4.5320 o         1 MOL     -0.636511
      4 H1         -0.9280   -4.3990    6.1450 hc        1 MOL      0.087696
      5 H2          0.8070   -4.6570    6.4430 hc        1 MOL      0.087696
      6 H3          0.0610   -3.0860    6.8250 hc        1 MOL      0.087696
      7 N1          0.4420   -4.3160    3.7500 n         1 MOL     -0.649027
      8 C3          1.1260   -4.0630    2.4140 c3        1 MOL      0.372625
      9 C4          0.5900   -5.0300    1.3260 c         1 MOL      0.514678
     10 O2          0.0890   -6.1150    1.6050 o         1 MOL     -0.591967
     11 C5          2.6200   -4.4210    2.5960 c3        1 MOL     -0.371686
     12 C6          3.5170   -3.6490    1.6320 c         1 MOL      0.912674
     13 O3          4.7150   -3.6020    1.9130 o         1 MOL     -0.744365
     14 O4          3.1160   -2.9880    0.6390 o         1 MOL     -0.744365
     15 H4          0.0410   -5.2180    3.9460 hn        1 MOL      0.309691
     16 H5          0.9730   -3.0310    2.0950 h1        1 MOL      0.119142
     17 H6          2.7860   -5.4910    2.4070 hc        1 MOL      0.073972
     18 H7          3.0030   -4.1740    3.5790 hc        1 MOL      0.073972
     19 N2          0.5790   -4.4950    0.0620 n         1 MOL     -0.224556
     20 C7          0.1280   -5.1780   -1.2070 c3        1 MOL     -0.008736
     21 C8          1.1970   -5.0520   -2.3160 c         1 MOL      0.447683
     22 O5          1.1910   -5.8890   -3.1990 o         1 MOL     -0.578387
     23 C9         -1.2350   -4.6080   -1.6200 c3        1 MOL      0.155975
     24 C10        -2.3110   -5.0190   -0.5680 c3        1 MOL     -0.067126
     25 C11        -1.7100   -4.9860   -3.0130 c3        1 MOL     -0.248690
     26 C12        -3.6630   -4.2920   -0.7620 c3        1 MOL     -0.128145
     27 H8          0.8460   -3.5170    0.0010 hn        1 MOL     -0.215411
     28 H9         -0.0040   -6.2510   -1.1290 h1        1 MOL      0.071636
     29 H10        -1.1430   -3.5270   -1.6440 hc        1 MOL      0.039533
     30 H11        -1.9220   -4.8410    0.4370 hc        1 MOL      0.027584
     31 H12        -2.5340   -6.0770   -0.7150 hc        1 MOL      0.027584
     32 H13        -1.7720   -5.9960   -3.4050 hc        1 MOL      0.052640
     33 H14        -2.7440   -4.6560   -3.1160 hc        1 MOL      0.052640
     34 H15        -1.1030   -4.4310   -3.7270 hc        1 MOL      0.052640
     35 H16        -4.2580   -4.7420   -1.5640 hc        1 MOL      0.045712
     36 H17        -4.2480   -4.3230    0.1590 hc        1 MOL      0.045712
     37 H18        -3.6060   -3.2570   -1.1000 hc        1 MOL      0.045712
     38 N3          1.9700   -3.9810   -2.3380 n         1 MOL     -0.221593
     39 C13         2.9370   -3.7330   -3.4140 c3        1 MOL      0.175402
     40 C14         4.4730   -3.7400   -3.0110 c         1 MOL      0.272171
     41 O6          5.3200   -3.8420   -3.8840 o         1 MOL     -0.537714
     42 C15         2.6720   -2.4830   -4.1620 c3        1 MOL     -0.255898
     43 C16         2.4810   -1.2540   -3.2240 c         1 MOL      0.722625
     44 O7          3.1060   -1.1660   -2.2100 o         1 MOL     -0.719789
     45 O8          1.7120   -0.2940   -3.5990 o         1 MOL     -0.719789
     46 H19         1.7470   -3.2740   -1.6480 hn        1 MOL      0.279679
     47 H20         2.9630   -4.5570   -4.1270 h1        1 MOL      0.050072
     48 H21         1.7070   -2.6290   -4.6650 hc        1 MOL      0.057832
     49 H22         3.4440   -2.3500   -4.9290 hc        1 MOL      0.057832
     50 N4          4.7760   -3.5460   -1.7420 n         1 MOL     -0.075223
     51 C17         6.1710   -3.3880   -1.2640 c3        1 MOL     -0.112471
     52 C18         6.9620   -2.0040   -1.4080 c         1 MOL      0.386516
     53 O9          8.1880   -1.9650   -1.2120 o         1 MOL     -0.569321
     54 H23         4.0420   -3.6960   -1.0730 hn        1 MOL      0.087352
     55 H24         6.7610   -4.2050   -1.6710 h1        1 MOL      0.082940
     56 H25         6.0510   -3.7250   -0.2370 h1        1 MOL      0.082940
     57 N5          6.2920   -0.8910   -1.7190 n         1 MOL     -0.139756
     58 C19         6.9100    0.3360   -2.1970 c3        1 MOL      0.042933
     59 C20         7.7180    1.1630   -1.2280 c         1 MOL      0.349854
     60 O10         8.6470    1.8600   -1.5480 o         1 MOL     -0.562926
     61 C21         5.9190    1.3160   -2.8990 c3        1 MOL     -0.539279
     62 C22         4.6010    1.4580   -2.1430 c         1 MOL      0.888023
     63 O11         4.5550    1.0010   -0.9630 o         1 MOL     -0.669420
     64 O12         3.6850    2.1420   -2.6160 o         1 MOL     -0.669420
     65 H26         5.2910   -0.8880   -1.6210 hn        1 MOL      0.249689
     66 H27         7.5330   -0.0200   -3.0060 h1        1 MOL      0.099523
     67 H28         5.7930    0.8450   -3.8800 hc        1 MOL      0.155557
     68 H29         6.3950    2.2900   -3.0330 hc        1 MOL      0.155557
     69 N6          7.2740    1.2680    0.0010 n         1 MOL     -0.000832
     70 C23         7.6400    2.0540    1.1420 c3        1 MOL     -0.114654
     71 C24         6.4600    3.0570    1.4920 c         1 MOL      0.606042
     72 O13         6.7590    3.9600    2.2610 o         1 MOL     -0.632739
     73 H30         6.4040    0.7550    0.0920 hn        1 MOL     -0.031744
     74 H31         8.5070    2.6850    0.9590 h1        1 MOL      0.064550
     75 H32         7.7750    1.3180    1.9370 h1        1 MOL      0.064550
     76 N7          5.2460    2.9430    0.9650 n         1 MOL     -0.352021
     77 C25         4.1310    3.8730    1.3060 c3        1 MOL      0.032046
     78 C26         2.8660    3.0760    1.6480 c         1 MOL      0.289115
     79 O14         2.8050    1.8970    1.3760 o         1 MOL     -0.454671
     80 C27         3.9270    4.8420    0.1290 c3        1 MOL     -0.007312
     81 C28         4.9340    6.0040   -0.0120 c3        1 MOL     -0.185958
     82 C29         4.6760    7.0740   -1.0890 c         1 MOL      0.708546
     83 N8          5.6930    7.9000   -1.4050 n         1 MOL     -0.866614
     84 O15         3.5310    7.2610   -1.5540 o         1 MOL     -0.558486
     85 H33         4.9960    2.1670    0.3670 hn        1 MOL      0.245838
     86 H34         4.4370    4.5360    2.1120 h1        1 MOL      0.064186
     87 H35         2.9760    5.3640    0.2550 hc        1 MOL      0.034562
     88 H36         3.9990    4.3450   -0.8370 hc        1 MOL      0.034562
     89 H37         5.8750    5.5130   -0.2440 hc        1 MOL      0.063882
     90 H38         5.0020    6.5030    0.9550 hc        1 MOL      0.063882
     91 H39         6.6480    7.7360   -1.1320 hn        1 MOL      0.365907
     92 H40         5.5610    8.6590   -2.0580 hn        1 MOL      0.365907
     93 N9          1.7920    3.6540    2.1630 n         1 MOL     -0.221307
     94 C30         0.4900    3.0910    2.4550 c3        1 MOL     -0.006728
     95 C31        -0.6210    3.4340    1.4530 c         1 MOL      0.413101
     96 O16        -1.0230    4.6270    1.4350 o         1 MOL     -0.575980
     97 C32         0.0010    3.4270    3.8710 c3        1 MOL      0.338012
     98 C33        -1.1970    2.7270    4.3760 c3        1 MOL     -0.410818
     99 C34         1.1670    3.0070    4.8430 c3        1 MOL     -0.410818
    100 H41         1.9610    4.6380    2.2890 hn        1 MOL      0.230439
    101 H42         0.5970    2.0090    2.4390 h1        1 MOL      0.063085
    102 H43        -0.0950    4.5230    3.9120 hc        1 MOL     -0.046631
    103 H44        -2.0740    2.9000    3.7540 hc        1 MOL      0.091154
    104 H45        -1.1360    1.6640    4.6030 hc        1 MOL      0.091154
    105 H46        -1.3860    3.1220    5.3640 hc        1 MOL      0.091154
    106 H47         1.4570    2.0030    4.5380 hc        1 MOL      0.091154
    107 H48         1.9420    3.7730    4.7580 hc        1 MOL      0.091154
    108 H49         0.8280    3.0350    5.8750 hc        1 MOL      0.091154
    109 N10        -1.1720    2.5120    0.6570 n         1 MOL     -0.295802
    110 C35        -2.3670    2.6020   -0.2400 c3        1 MOL      0.194589
    111 C36        -3.7580    2.5350    0.3850 c         1 MOL      0.131456
    112 O17        -3.9060    2.0550    1.4870 o         1 MOL     -0.171593
    113 C37        -2.2590    1.5320   -1.3210 c3        1 MOL     -0.369259
    114 C38        -3.3650    1.6170   -2.3320 c         1 MOL      0.795866
    115 N11        -3.3630    2.6370   -3.1310 n         1 MOL     -0.756413
    116 O18        -4.1590    0.7250   -2.4270 o         1 MOL     -0.616172
    117 H50        -0.6300    1.6690    0.6570 hn        1 MOL      0.316103
    118 H51        -2.3250    3.5760   -0.7290 h1        1 MOL      0.037672
    119 H52        -2.4050    0.5070   -0.9600 hc        1 MOL      0.124265
    120 H53        -1.2610    1.5300   -1.7600 hc        1 MOL      0.124265
    121 H54        -2.6490    3.3560   -3.0320 hn        1 MOL      0.327378
    122 H55        -4.1310    2.7830   -3.7590 hn        1 MOL      0.327378
    123 N12        -4.9270    3.0360   -0.2320 n         1 MOL     -0.236520
    124 C39        -6.2570    2.9720    0.4050 c3        1 MOL      0.200105
    125 C40        -6.6050    1.5610    0.8140 c         1 MOL      0.195993
    126 O19        -7.1890    1.3480    1.8710 o         1 MOL     -0.532093
    127 C41        -7.3520    3.5680   -0.4660 c3        1 MOL     -0.116260
    128 C42        -7.1840    3.2380   -1.9450 ca        1 MOL     -0.021004
    129 C43        -6.4930    4.0620   -2.8650 ca        1 MOL     -0.106752
    130 C44        -7.6880    2.0410   -2.4320 ca        1 MOL     -0.106752
    131 C45        -6.2020    3.7550   -4.1920 ca        1 MOL     -0.245024
    132 C46        -7.5000    1.6930   -3.7400 ca        1 MOL     -0.245024
    133 C47        -6.7380    2.5250   -4.6260 ca        1 MOL      0.319499
    134 O20        -6.5120    2.1380   -5.9130 oh        1 MOL     -0.464310
    135 H56        -4.9000    3.4610   -1.1420 hn        1 MOL      0.107146
    136 H57        -6.1660    3.5310    1.3370 h1        1 MOL      0.021589
    137 H58        -7.2780    4.6490   -0.2930 hc        1 MOL      0.054801
    138 H59        -8.3140    3.3210   -0.0320 hc        1 MOL      0.054801
    139 H60        -6.0940    5.0100   -2.5090 ha        1 MOL      0.086082
    140 H61        -8.2110    1.3950   -1.7420 ha        1 MOL      0.086082
    141 H62        -5.7170    4.4580   -4.8560 ha        1 MOL      0.122578
    142 H63        -7.9470    0.7830   -4.1070 ha        1 MOL      0.122578
    143 H64        -6.1170    2.8080   -6.4730 ho        1 MOL      0.340746
    144 N13        -6.2410    0.5360    0.0060 n         1 MOL      0.294417
    145 C48        -6.4320   -0.9000    0.3570 c3        1 MOL     -0.612416
    146 C49        -5.5000   -1.4090    1.4370 c         1 MOL      0.607828
    147 O21        -5.8220   -2.3920    2.0980 o         1 MOL     -0.520997
    148 C50        -6.2360   -1.8360   -0.8530 c3        1 MOL      0.104826
    149 C51        -7.2130   -1.7290   -2.0850 c3        1 MOL      0.005351
    150 C52        -8.6720   -1.9050   -1.6560 c         1 MOL      0.623259
    151 O22        -9.4860   -1.3250   -2.3740 o         1 MOL     -0.699673
    152 O23        -8.9480   -2.6750   -0.7180 o         1 MOL     -0.699673
    153 H65        -5.7560    0.7430   -0.8570 hn        1 MOL      0.299319
    154 H66        -7.3920   -1.1150    0.8200 h1        1 MOL      0.243806
    155 H67        -6.3210   -2.8400   -0.4340 hc        1 MOL     -0.026421
    156 H68        -5.2340   -1.9260   -1.2750 hc        1 MOL     -0.026421
    157 H69        -6.9710   -2.4550   -2.8630 hc        1 MOL     -0.014316
    158 H70        -6.9700   -0.7610   -2.5230 hc        1 MOL     -0.014316
    159 N14        -4.3840   -0.6930    1.7240 n         1 MOL     -0.297820
    160 C53        -3.4940   -1.0630    2.8740 c3        1 MOL      0.013090
    161 C54        -4.0340   -0.3880    4.1650 c         1 MOL      0.425273
    162 O24        -4.0200   -0.9970    5.2420 o         1 MOL     -0.562532
    163 C55        -2.0320   -0.8460    2.5180 c3        1 MOL     -0.079344
    164 C56        -1.5110   -1.5150    1.2080 c3        1 MOL      0.018709
    165 C57        -0.2050   -1.0150    0.6910 c         1 MOL      0.586042
    166 O25         0.4780   -1.7270   -0.0810 o         1 MOL     -0.631976
    167 O26         0.2810    0.0270    1.1770 o         1 MOL     -0.631976
    168 H71        -4.2760    0.1980    1.2540 hn        1 MOL     -0.045221
    169 H72        -3.6030   -2.1210    3.0800 h1        1 MOL      0.051450
    170 H73        -1.4200   -1.1390    3.3750 hc        1 MOL      0.049216
    171 H74        -1.9500    0.2370    2.4530 hc        1 MOL      0.049216
    172 H75        -2.2620   -1.3800    0.4310 hc        1 MOL      0.023630
    173 H76        -1.3900   -2.5690    1.4280 hc        1 MOL      0.023630
    174 N15        -4.4950    0.8360    4.0100 n         1 MOL      0.017573
    175 C58        -4.8950    1.7220    5.0700 c3        1 MOL     -0.259475
    176 H77        -5.8000    1.3380    5.5420 h1        1 MOL      0.078521
    177 H78        -4.0990    1.7860    5.8100 h1        1 MOL      0.078521
    178 H79        -5.0920    2.7120    4.6610 h1        1 MOL      0.078521
    179 H80        -4.4250    1.3230    3.1280 hn        1 MOL      0.099903
    180 Ca1         2.7260   -0.3610    0.2370 Ca        1 MOL      1.708215
    181 O27         2.5020   -0.8120    2.7560 oh        1 MOL     -0.923682
    182 H81         3.1830   -0.3700    3.2660 ho        1 MOL      0.431631
    183 H82         1.8700   -1.1050    3.3970 ho        1 MOL      0.431631
    184 O28         5.1370   -0.9160    1.2320 oh        1 MOL     -0.923682
    185 H83         5.1460   -1.8340    1.5090 ho        1 MOL      0.431631
    186 H84         6.0550   -0.6350    1.2950 ho        1 MOL      0.431631
    187 O29         1.3490    1.5510   -1.4670 oh        1 MOL     -0.923682
    188 H85         2.1260    2.0370   -1.7420 ho        1 MOL      0.431631
    189 H86         1.2340    0.8760   -2.1190 ho        1 MOL      0.431631
@<TRIPOS>BOND
     1    1    2 1   
     2    1    4 1   
     3    1    5 1   
     4    1    6 1   
     5    2    3 2   
     6    2    7 1   
     7    7    8 1   
     8    7   15 1   
     9    8    9 1   
    10    8   11 1   
    11    8   16 1   
    12    9   10 2   
    13    9   19 1   
    14   11   12 1   
    15   11   17 1   
    16   11   18 1   
    17   12   13 1   
    18   12   14 1   
    19   19   20 1   
    20   19   27 1   
    21   20   21 1   
    22   20   23 1   
    23   20   28 1   
    24   21   22 2   
    25   21   38 1   
    26   23   24 1   
    27   23   25 1   
    28   23   29 1   
    29   24   26 1   
    30   24   30 1   
    31   24   31 1   
    32   25   32 1   
    33   25   33 1   
    34   25   34 1   
    35   26   35 1   
    36   26   36 1   
    37   26   37 1   
    38   38   39 1   
    39   38   46 1   
    40   39   40 1   
    41   39   42 1   
    42   39   47 1   
    43   40   41 2   
    44   40   50 1   
    45   42   43 1   
    46   42   48 1   
    47   42   49 1   
    48   43   44 1   
    49   43   45 1   
    50   50   51 1   
    51   50   54 1   
    52   51   52 1   
    53   51   55 1   
    54   51   56 1   
    55   52   53 2   
    56   52   57 1   
    57   57   58 1   
    58   57   65 1   
    59   58   59 1   
    60   58   61 1   
    61   58   66 1   
    62   59   60 2   
    63   59   69 1   
    64   61   62 1   
    65   61   67 1   
    66   61   68 1   
    67   62   63 1   
    68   62   64 1   
    69   69   70 1   
    70   69   73 1   
    71   70   71 1   
    72   70   74 1   
    73   70   75 1   
    74   71   72 2   
    75   71   76 1   
    76   76   77 1   
    77   76   85 1   
    78   77   78 1   
    79   77   80 1   
    80   77   86 1   
    81   78   79 2   
    82   78   93 1   
    83   80   81 1   
    84   80   87 1   
    85   80   88 1   
    86   81   82 1   
    87   81   89 1   
    88   81   90 1   
    89   82   83 1   
    90   82   84 2   
    91   83   91 1   
    92   83   92 1   
    93   93   94 1   
    94   93  100 1   
    95   94   95 1   
    96   94   97 1   
    97   94  101 1   
    98   95   96 2   
    99   95  109 1   
   100   97   98 1   
   101   97   99 1   
   102   97  102 1   
   103   98  103 1   
   104   98  104 1   
   105   98  105 1   
   106   99  106 1   
   107   99  107 1   
   108   99  108 1   
   109  109  110 1   
   110  109  117 1   
   111  110  111 1   
   112  110  113 1   
   113  110  118 1   
   114  111  112 2   
   115  111  123 1   
   116  113  114 1   
   117  113  119 1   
   118  113  120 1   
   119  114  115 1   
   120  114  116 2   
   121  115  121 1   
   122  115  122 1   
   123  123  124 1   
   124  123  135 1   
   125  124  125 1   
   126  124  127 1   
   127  124  136 1   
   128  125  126 2   
   129  125  144 1   
   130  127  128 1   
   131  127  137 1   
   132  127  138 1   
   133  128  129 ar  
   134  128  130 ar  
   135  129  131 ar  
   136  129  139 1   
   137  130  132 ar  
   138  130  140 1   
   139  131  133 ar  
   140  131  141 1   
   141  132  133 ar  
   142  132  142 1   
   143  133  134 1   
   144  134  143 1   
   145  144  145 1   
   146  144  153 1   
   147  145  146 1   
   148  145  148 1   
   149  145  154 1   
   150  146  147 2   
   151  146  159 1   
   152  148  149 1   
   153  148  155 1   
   154  148  156 1   
   155  149  150 1   
   156  149  157 1   
   157  149  158 1   
   158  150  151 1   
   159  150  152 1   
   160  159  160 1   
   161  159  168 1   
   162  160  161 1   
   163  160  163 1   
   164  160  169 1   
   165  161  162 2   
   166  161  174 1   
   167  163  164 1   
   168  163  170 1   
   169  163  171 1   
   170  164  165 1   
   171  164  172 1   
   172  164  173 1   
   173  165  166 1   
   174  165  167 1   
   175  174  175 1   
   176  174  179 1   
   177  175  176 1   
   178  175  177 1   
   179  175  178 1   
   180  181  182 1   
   181  181  183 1   
   182  184  185 1   
   183  184  186 1   
   184  187  188 1   
   185  187  189 1   
@<TRIPOS>SUBSTRUCTURE
     1 MOL         1 TEMP              0 ****  ****    0 ROOT
