@<TRIPOS>MOLECULE
MOL
  183   181     1     0     0
SMALL
resp


@<TRIPOS>ATOM
      1 C1         -0.7250    2.1950    6.2030 c3        1 MOL     -0.284076
      2 C2         -0.9960    2.1420    4.7010 c         1 MOL      0.793650
      3 O1         -0.1700    2.4990    3.9200 o         1 MOL     -0.573997
      4 H1          0.3310    1.9980    6.3880 hc        1 MOL      0.052179
      5 H2         -0.9820    3.1830    6.5840 hc        1 MOL      0.052179
      6 H3         -1.3290    1.4420    6.7080 hc        1 MOL      0.052179
      7 N1         -2.1460    1.6150    4.3460 n         1 MOL     -0.653874
      8 C3         -2.5640    1.4740    2.9160 c3        1 MOL      0.215936
      9 C4         -2.9640    2.9200    2.4290 c         1 MOL      0.390504
     10 O2         -3.7270    3.6340    3.1870 o         1 MOL     -0.557275
     11 C5         -3.8150    0.5160    2.8830 c3        1 MOL     -0.111977
     12 C6         -4.4480    0.3280    1.5010 c         1 MOL      0.740502
     13 O3         -5.6670    0.0950    1.4330 o         1 MOL     -0.668666
     14 O4         -3.7240    0.5590    0.5210 o         1 MOL     -0.668666
     15 H4         -2.8060    1.2900    5.0390 hn        1 MOL      0.314764
     16 H5         -1.7110    1.0820    2.3700 h1        1 MOL      0.039889
     17 H6         -4.6230    0.9220    3.4920 hc        1 MOL      0.009921
     18 H7         -3.6140   -0.4570    3.3230 hc        1 MOL      0.009921
     19 N2         -2.7150    3.2260    1.1470 n         1 MOL     -0.358201
     20 C7         -3.0150    4.5390    0.5280 c3        1 MOL      0.119582
     21 C8         -4.1070    4.4510   -0.5400 c         1 MOL      0.413883
     22 O5         -4.8310    5.4650   -0.7970 o         1 MOL     -0.572243
     23 C9         -1.8060    5.4010    0.2370 c3        1 MOL      0.205659
     24 C10        -0.8450    5.3280    1.4720 c3        1 MOL     -0.058931
     25 C11        -2.1150    6.8100   -0.2630 c3        1 MOL     -0.079310
     26 C12         0.3710    6.2410    1.5560 c3        1 MOL     -0.262499
     27 H8         -2.1980    2.5470    0.6060 hn        1 MOL      0.137671
     28 H9         -3.5290    5.0840    1.3230 h1        1 MOL      0.017445
     29 H10        -1.2470    4.9710   -0.6020 hc        1 MOL      0.006508
     30 H11        -0.4370    4.3210    1.5830 hc        1 MOL      0.037750
     31 H12        -1.4760    5.4500    2.3560 hc        1 MOL      0.037750
     32 H13        -2.6860    6.7310   -1.1910 hc        1 MOL     -0.001669
     33 H14        -2.7330    7.3210    0.4630 hc        1 MOL     -0.001669
     34 H15        -1.2700    7.5010   -0.3590 hc        1 MOL     -0.001669
     35 H16         0.0670    7.2840    1.5220 hc        1 MOL      0.057549
     36 H17         0.9260    6.0670    2.4820 hc        1 MOL      0.057549
     37 H18         1.0370    6.0460    0.7200 hc        1 MOL      0.057549
     38 N3         -4.2890    3.2550   -1.0630 n         1 MOL     -0.169332
     39 C13        -5.2050    2.9480   -2.1930 c3        1 MOL     -0.252297
     40 C14        -6.6700    2.6090   -1.7120 c         1 MOL      0.478644
     41 O6         -7.6000    2.7240   -2.6050 o         1 MOL     -0.547019
     42 C15        -4.6330    1.8240   -3.0240 c3        1 MOL     -0.130905
     43 C16        -3.1500    2.0010   -3.4350 c         1 MOL      0.599750
     44 O7         -2.6690    3.0400   -3.9050 o         1 MOL     -0.644855
     45 O8         -2.3300    1.1530   -3.0650 o         1 MOL     -0.644855
     46 H19        -3.5980    2.5560   -0.8380 hn        1 MOL      0.299757
     47 H20        -5.1790    3.7870   -2.8800 h1        1 MOL      0.154140
     48 H21        -5.1900    1.7280   -3.9590 hc        1 MOL      0.056878
     49 H22        -4.8300    0.8970   -2.4740 hc        1 MOL      0.056878
     50 N4         -6.9410    2.1240   -0.4760 n         1 MOL     -0.269645
     51 C17        -8.2430    1.5160   -0.0930 c3        1 MOL     -0.272033
     52 C18        -8.3660    0.1060   -0.7890 c         1 MOL      0.575842
     53 O9         -9.4170   -0.4000   -0.9230 o         1 MOL     -0.587861
     54 H23        -6.2120    2.0430    0.2240 hn        1 MOL      0.231953
     55 H24        -9.0180    2.2150   -0.4000 h1        1 MOL      0.130239
     56 H25        -8.2510    1.3480    0.9810 h1        1 MOL      0.130239
     57 N5         -7.2120   -0.4730   -1.1940 n         1 MOL     -0.269262
     58 C19        -7.2360   -1.9100   -1.7060 c3        1 MOL      0.017717
     59 C20        -7.0040   -2.9250   -0.5040 c         1 MOL      0.283310
     60 O10        -7.0250   -4.1210   -0.6270 o         1 MOL     -0.490225
     61 C21        -6.1600   -2.1480   -2.7170 c3        1 MOL     -0.285374
     62 C22        -4.6810   -1.8860   -2.2630 c         1 MOL      0.759475
     63 O11        -3.9240   -1.3280   -3.0780 o         1 MOL     -0.737167
     64 O12        -4.3000   -2.0000   -1.0750 o         1 MOL     -0.737167
     65 H26        -6.3540   -0.0940   -0.8210 hn        1 MOL      0.250671
     66 H27        -8.1690   -2.2330   -2.1500 h1        1 MOL      0.114889
     67 H28        -6.3770   -1.4240   -3.5000 hc        1 MOL      0.073096
     68 H29        -6.2360   -3.1950   -3.0180 hc        1 MOL      0.073096
     69 N6         -6.7330   -2.3610    0.6640 n         1 MOL     -0.003545
     70 C23        -6.7090   -3.0370    1.9590 c3        1 MOL     -0.082146
     71 C24        -5.5300   -3.9980    1.9600 c         1 MOL      0.480735
     72 O13        -5.6670   -5.2110    2.1570 o         1 MOL     -0.561183
     73 H30        -6.7120   -1.3500    0.6450 hn        1 MOL      0.133274
     74 H31        -7.6610   -3.5770    2.0550 h1        1 MOL      0.039041
     75 H32        -6.5370   -2.2610    2.7030 h1        1 MOL      0.039041
     76 N7         -4.3590   -3.5340    1.4730 n         1 MOL     -0.042603
     77 C25        -3.0040   -4.2050    1.6410 c3        1 MOL     -0.188872
     78 C26        -1.8490   -3.2440    1.7930 c         1 MOL      0.615368
     79 O14        -2.0720   -2.0440    1.5380 o         1 MOL     -0.581802
     80 C27        -2.7740   -5.3280    0.5330 c3        1 MOL     -0.021900
     81 C28        -3.1320   -5.0250   -0.9320 c3        1 MOL     -0.122560
     82 C29        -2.1060   -4.2160   -1.7190 c         1 MOL      0.542534
     83 N8         -1.7780   -4.5550   -2.9440 n         1 MOL     -0.688560
     84 O15        -1.6860   -3.1890   -1.2740 o         1 MOL     -0.529694
     85 H33        -4.3070   -2.6700    0.9550 hn        1 MOL      0.019749
     86 H34        -2.9730   -4.6220    2.6500 h1        1 MOL      0.056910
     87 H35        -3.4910   -6.1030    0.8160 hc        1 MOL      0.027828
     88 H36        -1.8190   -5.8370    0.6140 hc        1 MOL      0.027828
     89 H37        -4.1410   -4.6210   -0.9390 hc        1 MOL      0.067853
     90 H38        -3.1980   -6.0130   -1.4010 hc        1 MOL      0.067853
     91 H39        -2.0760   -5.4190   -3.3860 hn        1 MOL      0.322372
     92 H40        -1.0240   -4.1130   -3.4450 hn        1 MOL      0.322372
     93 N9         -0.6440   -3.6850    2.1960 n         1 MOL     -0.385494
     94 C30         0.5520   -2.8580    2.2470 c3        1 MOL     -0.007234
     95 C31         1.6240   -3.2600    1.2570 c         1 MOL      0.382789
     96 O16         2.1490   -4.3700    1.4260 o         1 MOL     -0.594230
     97 C32         1.1280   -2.7250    3.6760 c3        1 MOL      0.254516
     98 C33         2.3370   -1.8570    3.9030 c3        1 MOL     -0.284839
     99 C34         0.1220   -2.1170    4.5790 c3        1 MOL     -0.284839
    100 H41        -0.6210   -4.5970    2.6440 hn        1 MOL      0.271647
    101 H42         0.3560   -1.8160    2.0280 h1        1 MOL      0.155702
    102 H43         1.2800   -3.7560    3.9830 hc        1 MOL     -0.016804
    103 H44         3.1780   -2.0440    3.2300 hc        1 MOL      0.053913
    104 H45         2.2450   -0.7720    3.8030 hc        1 MOL      0.053913
    105 H46         2.7730   -2.1700    4.8490 hc        1 MOL      0.053913
    106 H47         0.3580   -2.3660    5.6200 hc        1 MOL      0.053913
    107 H48         0.0370   -1.0610    4.3390 hc        1 MOL      0.053913
    108 H49        -0.8660   -2.5690    4.4400 hc        1 MOL      0.053913
    109 N10         1.9600   -2.4380    0.3050 n         1 MOL     -0.246125
    110 C35         3.1050   -2.5890   -0.6280 c3        1 MOL      0.404411
    111 C36         4.3860   -1.9530   -0.0190 c         1 MOL      0.201830
    112 O17         4.4340   -1.1450    0.8500 o         1 MOL     -0.174491
    113 C37         2.6530   -2.1070   -2.0070 c3        1 MOL     -0.449558
    114 C38         3.6030   -2.4700   -3.1400 c         1 MOL      0.745817
    115 N11         3.1950   -3.3000   -4.1170 n         1 MOL     -0.869103
    116 O18         4.7540   -2.0490   -3.1960 o         1 MOL     -0.548891
    117 H50         1.4130   -1.5910    0.3190 hn        1 MOL      0.122837
    118 H51         3.2140   -3.6670   -0.7020 h1        1 MOL     -0.004572
    119 H52         2.5030   -1.0280   -1.9270 hc        1 MOL      0.140786
    120 H53         1.7440   -2.6810   -2.2370 hc        1 MOL      0.140786
    121 H54         2.2070   -3.5180   -4.1720 hn        1 MOL      0.385391
    122 H55         3.7320   -3.2960   -4.9640 hn        1 MOL      0.385391
    123 N12         5.5910   -2.3780   -0.5550 n         1 MOL     -0.578541
    124 C39         6.8570   -1.6860   -0.1420 c3        1 MOL      0.215093
    125 C40         6.8730   -0.1670   -0.3870 c         1 MOL      0.567715
    126 O19         7.4700    0.4950    0.4770 o         1 MOL     -0.513913
    127 C41         8.0560   -2.2180   -0.9510 c3        1 MOL     -0.075450
    128 C42         9.3790   -1.5910   -0.4940 ca        1 MOL     -0.035890
    129 C43        10.0010   -2.0240    0.6850 ca        1 MOL     -0.181868
    130 C44        10.0810   -0.7110   -1.3390 ca        1 MOL     -0.181868
    131 C45        11.2410   -1.5030    1.1250 ca        1 MOL     -0.149991
    132 C46        11.3150   -0.1970   -0.9920 ca        1 MOL     -0.149991
    133 C47        11.9010   -0.5230    0.2750 ca        1 MOL      0.217577
    134 O20        13.1140   -0.0750    0.7210 oh        1 MOL     -0.479032
    135 H56         5.5850   -2.9440   -1.3910 hn        1 MOL      0.287460
    136 H57         7.0360   -1.9670    0.8970 h1        1 MOL      0.045734
    137 H58         7.8950   -2.0390   -2.0130 hc        1 MOL      0.041278
    138 H59         8.1480   -3.3020   -0.8510 hc        1 MOL      0.041278
    139 H60         9.6100   -2.9010    1.1850 ha        1 MOL      0.134953
    140 H61         9.7280   -0.5400   -2.3490 ha        1 MOL      0.134953
    141 H62        11.8270   -1.9300    1.9250 ha        1 MOL      0.107764
    142 H63        11.8740    0.3340   -1.7460 ha        1 MOL      0.107764
    143 H64        13.4460    0.5540    0.0760 ho        1 MOL      0.361835
    144 N13         6.2310    0.3710   -1.4160 n         1 MOL     -0.434923
    145 C48         6.2000    1.8590   -1.5390 c3        1 MOL      0.131292
    146 C49         5.3470    2.4350   -0.3830 c         1 MOL      0.225032
    147 O21         5.5710    3.5780   -0.0090 o         1 MOL     -0.526595
    148 C50         5.7750    2.3380   -2.9320 c3        1 MOL     -0.068996
    149 C51         4.3900    1.8680   -3.3760 c3        1 MOL      0.081322
    150 C52         3.8710    2.4810   -4.6820 c         1 MOL      0.650805
    151 O22         4.6020    2.3340   -5.6590 o         1 MOL     -0.720354
    152 O23         2.8080    3.1460   -4.6270 o         1 MOL     -0.720354
    153 H65         5.6140   -0.1900   -1.9810 hn        1 MOL      0.284876
    154 H66         7.1900    2.2630   -1.3420 h1        1 MOL      0.042609
    155 H67         6.5170    1.9920   -3.6460 hc        1 MOL      0.019796
    156 H68         5.7510    3.4240   -2.9160 hc        1 MOL      0.019796
    157 H69         3.7180    2.1970   -2.5830 hc        1 MOL     -0.074995
    158 H70         4.3630    0.7760   -3.4470 hc        1 MOL     -0.074995
    159 N14         4.3540    1.7760    0.1920 n         1 MOL      0.076850
    160 C53         3.5460    2.3300    1.2730 c3        1 MOL     -0.107289
    161 C54         4.2510    2.1440    2.6150 c         1 MOL      0.353951
    162 O24         4.0060    2.9620    3.5790 o         1 MOL     -0.541817
    163 C55         2.2220    1.6080    1.3670 c3        1 MOL      0.224593
    164 C56         1.5240    1.8300    0.0230 c3        1 MOL     -0.076504
    165 C57         0.2290    1.0520    0.0250 c         1 MOL      0.741819
    166 O25        -0.8410    1.6010   -0.3380 o         1 MOL     -0.763749
    167 O26         0.2590   -0.1780    0.2870 o         1 MOL     -0.763749
    168 H71         4.1940    0.8700   -0.2360 hn        1 MOL      0.048337
    169 H72         3.3900    3.3820    1.0340 h1        1 MOL      0.117855
    170 H73         1.6170    2.0950    2.1320 hc        1 MOL     -0.009377
    171 H74         2.4580    0.5630    1.5710 hc        1 MOL     -0.009377
    172 H75         2.1680    1.5660   -0.8180 hc        1 MOL      0.048453
    173 H76         1.3830    2.8910   -0.1680 hc        1 MOL      0.048453
    174 N15         5.1210    1.0850    2.7050 n         1 MOL      0.012684
    175 C58         5.9190    0.7820    3.7730 c3        1 MOL     -0.160031
    176 H77         6.8840    0.4230    3.4150 h1        1 MOL      0.053092
    177 H78         6.0680    1.6730    4.3820 h1        1 MOL      0.053092
    178 H79         5.4440    0.0060    4.3730 h1        1 MOL      0.053092
    179 H80         5.0180    0.3890    1.9890 hn        1 MOL     -0.022959
    180 Ca1        -2.1160   -0.6170   -0.9820 Ca        1 MOL      1.692835
    181 O27        -0.1890   -0.8590   -2.8860 oh        1 MOL     -0.799211
    182 H81        -0.6140   -1.3400   -3.6010 ho        1 MOL      0.387158
    183 H82        -0.0080    0.0060   -3.2540 ho        1 MOL      0.387158
@<TRIPOS>BOND
     1    1    2 1   
     2    1    4 1   
     3    1    5 1   
     4    1    6 1   
     5    2    3 2   
     6    2    7 1   
     7    7    8 1   
     8    7   15 1   
     9    8    9 1   
    10    8   11 1   
    11    8   16 1   
    12    9   10 2   
    13    9   19 1   
    14   11   12 1   
    15   11   17 1   
    16   11   18 1   
    17   12   13 1   
    18   12   14 1   
    19   19   20 1   
    20   19   27 1   
    21   20   21 1   
    22   20   23 1   
    23   20   28 1   
    24   21   22 2   
    25   21   38 1   
    26   23   24 1   
    27   23   25 1   
    28   23   29 1   
    29   24   26 1   
    30   24   30 1   
    31   24   31 1   
    32   25   32 1   
    33   25   33 1   
    34   25   34 1   
    35   26   35 1   
    36   26   36 1   
    37   26   37 1   
    38   38   39 1   
    39   38   46 1   
    40   39   40 1   
    41   39   42 1   
    42   39   47 1   
    43   40   41 2   
    44   40   50 1   
    45   42   43 1   
    46   42   48 1   
    47   42   49 1   
    48   43   44 1   
    49   43   45 1   
    50   50   51 1   
    51   50   54 1   
    52   51   52 1   
    53   51   55 1   
    54   51   56 1   
    55   52   53 2   
    56   52   57 1   
    57   57   58 1   
    58   57   65 1   
    59   58   59 1   
    60   58   61 1   
    61   58   66 1   
    62   59   60 2   
    63   59   69 1   
    64   61   62 1   
    65   61   67 1   
    66   61   68 1   
    67   62   63 1   
    68   62   64 1   
    69   69   70 1   
    70   69   73 1   
    71   70   71 1   
    72   70   74 1   
    73   70   75 1   
    74   71   72 2   
    75   71   76 1   
    76   76   77 1   
    77   76   85 1   
    78   77   78 1   
    79   77   80 1   
    80   77   86 1   
    81   78   79 2   
    82   78   93 1   
    83   80   81 1   
    84   80   87 1   
    85   80   88 1   
    86   81   82 1   
    87   81   89 1   
    88   81   90 1   
    89   82   83 1   
    90   82   84 2   
    91   83   91 1   
    92   83   92 1   
    93   93   94 1   
    94   93  100 1   
    95   94   95 1   
    96   94   97 1   
    97   94  101 1   
    98   95   96 2   
    99   95  109 1   
   100   97   98 1   
   101   97   99 1   
   102   97  102 1   
   103   98  103 1   
   104   98  104 1   
   105   98  105 1   
   106   99  106 1   
   107   99  107 1   
   108   99  108 1   
   109  109  110 1   
   110  109  117 1   
   111  110  111 1   
   112  110  113 1   
   113  110  118 1   
   114  111  112 2   
   115  111  123 1   
   116  113  114 1   
   117  113  119 1   
   118  113  120 1   
   119  114  115 1   
   120  114  116 2   
   121  115  121 1   
   122  115  122 1   
   123  123  124 1   
   124  123  135 1   
   125  124  125 1   
   126  124  127 1   
   127  124  136 1   
   128  125  126 2   
   129  125  144 1   
   130  127  128 1   
   131  127  137 1   
   132  127  138 1   
   133  128  129 ar  
   134  128  130 ar  
   135  129  131 ar  
   136  129  139 1   
   137  130  132 ar  
   138  130  140 1   
   139  131  133 ar  
   140  131  141 1   
   141  132  133 ar  
   142  132  142 1   
   143  133  134 1   
   144  134  143 1   
   145  144  145 1   
   146  144  153 1   
   147  145  146 1   
   148  145  148 1   
   149  145  154 1   
   150  146  147 2   
   151  146  159 1   
   152  148  149 1   
   153  148  155 1   
   154  148  156 1   
   155  149  150 1   
   156  149  157 1   
   157  149  158 1   
   158  150  151 1   
   159  150  152 1   
   160  159  160 1   
   161  159  168 1   
   162  160  161 1   
   163  160  163 1   
   164  160  169 1   
   165  161  162 2   
   166  161  174 1   
   167  163  164 1   
   168  163  170 1   
   169  163  171 1   
   170  164  165 1   
   171  164  172 1   
   172  164  173 1   
   173  165  166 1   
   174  165  167 1   
   175  174  175 1   
   176  174  179 1   
   177  175  176 1   
   178  175  177 1   
   179  175  178 1   
   180  181  182 1   
   181  181  183 1   
@<TRIPOS>SUBSTRUCTURE
     1 MOL         1 TEMP              0 ****  ****    0 ROOT
