@<TRIPOS>MOLECULE
MOL
  189   185     1     0     0
SMALL
resp


@<TRIPOS>ATOM
      1 C1         -0.4780    2.7480   -4.7430 c3        1 MOL     -0.415879
      2 C2          0.2950    2.4820   -3.4270 c         1 MOL      0.611143
      3 O1         -0.3000    2.6100   -2.3630 o         1 MOL     -0.522556
      4 H1         -0.9900    3.7080   -4.6750 hc        1 MOL      0.105338
      5 H2          0.2220    2.7680   -5.5790 hc        1 MOL      0.105338
      6 H3         -1.2100    1.9570   -4.9010 hc        1 MOL      0.105338
      7 N1          1.5630    2.0690   -3.4920 n         1 MOL     -0.537160
      8 C3          2.3510    1.6750   -2.3290 c3        1 MOL      0.192672
      9 C4          3.0350    2.9180   -1.7570 c         1 MOL      0.410575
     10 O2          4.1900    3.1120   -1.8250 o         1 MOL     -0.451596
     11 C5          3.3440    0.5980   -2.8100 c3        1 MOL     -0.078546
     12 C6          4.2620    0.1700   -1.6190 c         1 MOL      0.547749
     13 O3          3.7550    0.0100   -0.4760 o         1 MOL     -0.603082
     14 O4          5.3930   -0.2000   -1.9440 o         1 MOL     -0.603082
     15 H4          1.9570    1.9050   -4.4090 hn        1 MOL      0.303608
     16 H5          1.6600    1.2470   -1.6100 h1        1 MOL     -0.011353
     17 H6          3.9940    1.0330   -3.5760 hc        1 MOL      0.023715
     18 H7          2.8270   -0.2330   -3.2960 hc        1 MOL      0.023715
     19 N2          2.2820    3.7150   -1.0370 n         1 MOL     -0.323355
     20 C7          2.5580    5.1220   -0.5670 c3        1 MOL     -0.052934
     21 C8          3.3000    5.1840    0.7390 c         1 MOL      0.465851
     22 O5          3.6210    6.3100    1.2080 o         1 MOL     -0.581553
     23 C9          1.2140    5.9840   -0.5340 c3        1 MOL     -0.103007
     24 C10         0.8210    6.5200   -1.9680 c3        1 MOL      0.088800
     25 C11        -0.2670    7.6260   -1.6880 c3        1 MOL     -0.015591
     26 C12        -0.7870    8.2480   -2.9890 c3        1 MOL     -0.066980
     27 N3         -1.6500    7.2760   -3.7630 n4        1 MOL     -0.418833
     28 H8          1.3090    3.4570   -0.9520 hn        1 MOL      0.259887
     29 H9          3.2460    5.6350   -1.2460 h1        1 MOL      0.112286
     30 H10         1.2480    6.8290    0.1650 hc        1 MOL      0.061696
     31 H11         0.3570    5.3930   -0.2120 hc        1 MOL      0.061696
     32 H12         0.3540    5.8580   -2.6810 hc        1 MOL     -0.016439
     33 H13         1.6820    7.0020   -2.4400 hc        1 MOL     -0.016439
     34 H14         0.1180    8.5100   -1.1760 hc        1 MOL      0.045652
     35 H15        -1.0240    7.1560   -1.0570 hc        1 MOL      0.045652
     36 H16        -0.0030    8.6100   -3.6590 hx        1 MOL      0.118783
     37 H17        -1.3180    9.1090   -2.5840 hx        1 MOL      0.118783
     38 H18        -1.1770    6.6750   -4.4280 hn        1 MOL      0.349784
     39 H19        -2.0140    6.5640   -3.1490 hn        1 MOL      0.349784
     40 H20        -2.3980    7.8410   -4.1320 hn        1 MOL      0.349784
     41 N4          3.5880    4.0290    1.2350 n         1 MOL     -0.194147
     42 C13         4.4140    3.7840    2.3780 c3        1 MOL      0.101133
     43 C14         5.6220    2.9160    2.0440 c         1 MOL      0.368229
     44 O6          6.4650    2.7660    2.9700 o         1 MOL     -0.507142
     45 C15         3.5020    3.2620    3.6040 c3        1 MOL     -0.277206
     46 C16         2.5850    2.0280    3.3020 c         1 MOL      0.881666
     47 O7          1.4840    2.0640    3.9060 o         1 MOL     -0.769923
     48 O8          2.9720    1.2030    2.4280 o         1 MOL     -0.769923
     49 H21         3.2640    3.2580    0.6620 hn        1 MOL      0.184081
     50 H22         4.8560    4.7460    2.6450 h1        1 MOL      0.071234
     51 H23         2.8370    4.1050    3.8190 hc        1 MOL      0.060137
     52 H24         4.1220    3.0150    4.4580 hc        1 MOL      0.060137
     53 N5          5.6700    2.2470    0.8330 n         1 MOL     -0.136528
     54 C17         6.8450    1.5800    0.2410 c3        1 MOL     -0.136396
     55 C18         7.1620    0.2290    0.8620 c         1 MOL      0.547885
     56 O9          8.2580   -0.1660    1.0470 o         1 MOL     -0.573457
     57 H25         4.8670    2.3550    0.2360 hn        1 MOL      0.028404
     58 H26         7.7980    2.0950    0.3360 h1        1 MOL      0.100447
     59 H27         6.6910    1.5250   -0.8400 h1        1 MOL      0.100447
     60 N6          6.1560   -0.5330    1.3920 n         1 MOL     -0.224877
     61 C19         6.4230   -1.8800    1.9810 c3        1 MOL     -0.061804
     62 C20         6.6060   -2.9470    0.9470 c         1 MOL      0.401470
     63 O10         6.8900   -4.0790    1.2540 o         1 MOL     -0.528218
     64 C21         5.3190   -2.3500    2.9280 c3        1 MOL     -0.282629
     65 C22         3.9130   -2.2360    2.3690 c         1 MOL      0.831843
     66 O11         3.6880   -2.5150    1.1730 o         1 MOL     -0.761209
     67 O12         2.9360   -1.8660    3.0430 o         1 MOL     -0.761209
     68 H28         5.2060   -0.3440    1.0950 hn        1 MOL      0.145900
     69 H29         7.3970   -1.8090    2.4690 h1        1 MOL      0.146563
     70 H30         5.2780   -1.8060    3.8770 hc        1 MOL      0.086584
     71 H31         5.4190   -3.4080    3.1400 hc        1 MOL      0.086584
     72 N7          6.4100   -2.6880   -0.3500 n         1 MOL     -0.086681
     73 C23         6.5670   -3.7020   -1.4090 c3        1 MOL     -0.250884
     74 C24         5.2870   -4.5390   -1.7090 c         1 MOL      0.560039
     75 O13         5.2680   -5.5980   -2.2870 o         1 MOL     -0.570214
     76 H32         6.3010   -1.7500   -0.6940 hn        1 MOL      0.174139
     77 H33         7.4590   -4.2800   -1.2100 h1        1 MOL      0.107258
     78 H34         6.6740   -3.1920   -2.3610 h1        1 MOL      0.107258
     79 N8          4.1490   -3.9920   -1.3160 n         1 MOL     -0.245195
     80 C25         2.8230   -4.6230   -1.4200 c3        1 MOL     -0.284826
     81 C26         1.6870   -3.5530   -1.4270 c         1 MOL      0.703025
     82 O14         1.8820   -2.4560   -1.0270 o         1 MOL     -0.609202
     83 C27         2.7210   -5.5980   -0.1660 c3        1 MOL      0.444681
     84 C28         3.6470   -6.8420   -0.0880 c3        1 MOL     -0.371808
     85 O15         2.8290   -4.9350    1.0910 oh        1 MOL     -0.662977
     86 H35         4.2420   -3.1050   -0.8620 hn        1 MOL      0.265566
     87 H36         2.7150   -5.2670   -2.2990 h1        1 MOL      0.125615
     88 H37         1.7580   -6.1050   -0.1790 h1        1 MOL     -0.015324
     89 H38         3.3220   -4.1320    0.9540 ho        1 MOL      0.445405
     90 H39         4.7040   -6.5940    0.0330 hc        1 MOL      0.097766
     91 H40         3.2890   -7.4670    0.7280 hc        1 MOL      0.097766
     92 H41         3.5030   -7.4660   -0.9620 hc        1 MOL      0.097766
     93 N9          0.4780   -3.8230   -2.0630 n         1 MOL     -0.631658
     94 C29        -0.6410   -2.8430   -2.0710 c3        1 MOL      0.158516
     95 C30        -1.7250   -3.4410   -1.2690 c         1 MOL      0.355160
     96 O16        -1.9730   -4.6290   -1.4230 o         1 MOL     -0.541822
     97 C31        -1.1400   -2.5030   -3.4830 c3        1 MOL      0.447131
     98 C32         0.0980   -2.0260   -4.3060 c3        1 MOL      0.051565
     99 C33        -2.2640   -1.5310   -3.5210 c3        1 MOL     -0.551994
    100 C34        -0.2000   -2.0670   -5.8540 c3        1 MOL     -0.331611
    101 H42         0.3490   -4.7120   -2.5110 hn        1 MOL      0.308029
    102 H43        -0.4090   -1.8940   -1.6000 h1        1 MOL     -0.004540
    103 H44        -1.4630   -3.4330   -3.9330 hc        1 MOL     -0.066976
    104 H45         0.8750   -2.7520   -4.0950 hc        1 MOL      0.011339
    105 H46         0.4040   -1.0440   -3.9750 hc        1 MOL      0.011339
    106 H47        -2.0370   -0.5740   -3.0710 hc        1 MOL      0.089808
    107 H48        -2.5960   -1.2980   -4.5380 hc        1 MOL      0.089808
    108 H49        -3.1360   -1.9300   -2.9950 hc        1 MOL      0.089808
    109 H50        -0.4960   -2.9960   -6.3280 hc        1 MOL      0.077848
    110 H51        -0.9930   -1.3470   -6.0350 hc        1 MOL      0.077848
    111 H52         0.6530   -1.8210   -6.4820 hc        1 MOL      0.077848
    112 N10        -2.5320   -2.7190   -0.4710 n         1 MOL     -0.095503
    113 C35        -3.7340   -3.1450    0.2410 c3        1 MOL      0.058520
    114 C36        -5.1050   -2.6870   -0.2840 c         1 MOL      0.313686
    115 O17        -5.1480   -1.7430   -1.0390 o         1 MOL     -0.395516
    116 C37        -3.5810   -2.7370    1.7200 c3        1 MOL      0.086877
    117 C38        -2.3700   -3.1740    2.5220 c3        1 MOL     -0.432113
    118 O18        -3.7630   -1.3340    1.8220 oh        1 MOL     -0.379567
    119 H53        -2.2950   -1.7430   -0.3740 hn        1 MOL      0.277616
    120 H54        -3.8610   -4.2330    0.1870 h1        1 MOL      0.039147
    121 H55        -4.4680   -3.0950    2.2390 h1        1 MOL      0.048854
    122 H56        -2.8890   -1.0000    1.6010 ho        1 MOL      0.239846
    123 H57        -1.7010   -2.3140    2.5840 hc        1 MOL      0.137840
    124 H58        -2.6740   -3.5380    3.5030 hc        1 MOL      0.137840
    125 H59        -1.9320   -4.0330    2.0170 hc        1 MOL      0.137840
    126 N11        -6.2430   -3.1740    0.2010 n         1 MOL     -0.209905
    127 C39        -7.6450   -2.6940   -0.1980 c3        1 MOL     -0.192668
    128 C40        -7.6990   -1.2150    0.2270 c         1 MOL      0.420517
    129 O19        -8.3020   -0.4990   -0.5610 o         1 MOL     -0.482214
    130 C41        -8.7710   -3.5000    0.4740 c3        1 MOL      0.401003
    131 C42        -9.0320   -4.9860    0.0700 c3        1 MOL     -0.443628
    132 O20        -8.4760   -3.5260    1.8500 oh        1 MOL     -0.638013
    133 H60        -6.2530   -4.0070    0.7850 hn        1 MOL      0.232605
    134 H61        -7.8430   -2.7230   -1.2710 h1        1 MOL      0.134023
    135 H62        -9.6670   -2.8840    0.3850 h1        1 MOL      0.021296
    136 H63        -9.1950   -3.0570    2.2990 ho        1 MOL      0.398326
    137 H64        -8.1900   -5.6630    0.2120 hc        1 MOL      0.127499
    138 H65        -9.9150   -5.2950    0.6390 hc        1 MOL      0.127499
    139 H66        -9.1820   -5.0550   -1.0120 hc        1 MOL      0.127499
    140 N12        -7.1000   -0.8160    1.3420 n         1 MOL     -0.262940
    141 C43        -7.0330    0.5580    1.8490 c3        1 MOL     -0.017795
    142 C44        -6.4320    1.4340    0.7490 c         1 MOL      0.240876
    143 O21        -7.0260    2.4220    0.2710 o         1 MOL     -0.506695
    144 C45        -6.3390    0.6470    3.2660 c3        1 MOL     -0.094684
    145 C46        -5.9290    2.0590    3.7140 c3        1 MOL      0.226008
    146 C47        -4.9800    2.0050    4.8830 c3        1 MOL     -0.047353
    147 C48        -4.6240    3.3340    5.5640 c3        1 MOL      0.008720
    148 N13        -3.1650    3.2650    5.9140 n4        1 MOL     -0.316367
    149 H67        -6.6670   -1.5280    1.9110 hn        1 MOL      0.205780
    150 H68        -8.0550    0.8730    2.0690 h1        1 MOL      0.099418
    151 H69        -5.4390    0.0300    3.2190 hc        1 MOL      0.023043
    152 H70        -7.0540    0.3130    4.0230 hc        1 MOL      0.023043
    153 H71        -6.7430    2.7710    3.9010 hc        1 MOL     -0.040286
    154 H72        -5.3390    2.4160    2.8720 hc        1 MOL     -0.040286
    155 H73        -4.0670    1.4670    4.6330 hc        1 MOL      0.017101
    156 H74        -5.4550    1.4310    5.6740 hc        1 MOL      0.017101
    157 H75        -5.2310    3.4020    6.4600 hx        1 MOL      0.094964
    158 H76        -4.7900    4.2050    4.9300 hx        1 MOL      0.094964
    159 H77        -2.6210    2.9730    5.1230 hn        1 MOL      0.325246
    160 H78        -2.8490    4.1610    6.2810 hn        1 MOL      0.325246
    161 H79        -3.0410    2.5210    6.5820 hn        1 MOL      0.325246
    162 N14        -5.2640    1.1040    0.2460 n         1 MOL      0.178095
    163 C49        -4.4060    2.0050   -0.6250 c3        1 MOL     -0.154169
    164 C50        -5.0240    2.2200   -2.0350 c         1 MOL      0.494962
    165 O22        -4.9910    3.3770   -2.5560 o         1 MOL     -0.599308
    166 C51        -3.0670    1.2600   -0.8440 c3        1 MOL      0.026035
    167 C52        -2.1570    1.6040    0.3350 c3        1 MOL     -0.325772
    168 C53        -0.7360    0.9300    0.2830 c         1 MOL      0.944108
    169 O23         0.2860    1.6310    0.3740 o         1 MOL     -0.799036
    170 O24        -0.6920   -0.3160    0.3020 o         1 MOL     -0.799036
    171 H80        -4.8720    0.2260    0.5360 hn        1 MOL      0.070084
    172 H81        -4.2960    2.9980   -0.1760 h1        1 MOL      0.075719
    173 H82        -2.6990    1.6600   -1.7930 hc        1 MOL      0.034282
    174 H83        -3.1880    0.1780   -0.8680 hc        1 MOL      0.034282
    175 H84        -2.6060    1.3290    1.2920 hc        1 MOL      0.042878
    176 H85        -1.9550    2.6770    0.3530 hc        1 MOL      0.042878
    177 N15        -5.5950    1.1840   -2.6570 n         1 MOL     -0.154520
    178 C54        -6.4660    1.2500   -3.8090 c3        1 MOL     -0.298822
    179 H86        -7.0560    2.1660   -3.7670 h1        1 MOL      0.121709
    180 H87        -5.8660    1.2460   -4.7200 h1        1 MOL      0.121709
    181 H88        -7.1340    0.3890   -3.8110 h1        1 MOL      0.121709
    182 H89        -5.5680    0.3530   -2.0800 hn        1 MOL      0.180970
    183 Ca1         1.7680   -0.6570    0.9870 Ca        1 MOL      1.735679
    184 O25         0.6240   -3.2150    1.6810 oh        1 MOL     -0.810113
    185 H90         1.4440   -3.6920    1.5060 ho        1 MOL      0.380576
    186 H91         0.4090   -3.4500    2.5870 ho        1 MOL      0.380576
    187 O26         0.1110   -0.2360    3.1410 oh        1 MOL     -0.810113
    188 H92        -0.2960   -0.4950    3.9640 ho        1 MOL      0.380576
    189 H93         0.3380    0.6850    3.2700 ho        1 MOL      0.380576
@<TRIPOS>BOND
     1    1    2 1   
     2    1    4 1   
     3    1    5 1   
     4    1    6 1   
     5    2    3 2   
     6    2    7 1   
     7    7    8 1   
     8    7   15 1   
     9    8    9 1   
    10    8   11 1   
    11    8   16 1   
    12    9   10 2   
    13    9   19 1   
    14   11   12 1   
    15   11   17 1   
    16   11   18 1   
    17   12   13 1   
    18   12   14 1   
    19   19   20 1   
    20   19   28 1   
    21   20   21 1   
    22   20   23 1   
    23   20   29 1   
    24   21   22 2   
    25   21   41 1   
    26   23   24 1   
    27   23   30 1   
    28   23   31 1   
    29   24   25 1   
    30   24   32 1   
    31   24   33 1   
    32   25   26 1   
    33   25   34 1   
    34   25   35 1   
    35   26   27 1   
    36   26   36 1   
    37   26   37 1   
    38   27   38 1   
    39   27   39 1   
    40   27   40 1   
    41   41   42 1   
    42   41   49 1   
    43   42   43 1   
    44   42   45 1   
    45   42   50 1   
    46   43   44 2   
    47   43   53 1   
    48   45   46 1   
    49   45   51 1   
    50   45   52 1   
    51   46   47 1   
    52   46   48 1   
    53   53   54 1   
    54   53   57 1   
    55   54   55 1   
    56   54   58 1   
    57   54   59 1   
    58   55   56 2   
    59   55   60 1   
    60   60   61 1   
    61   60   68 1   
    62   61   62 1   
    63   61   64 1   
    64   61   69 1   
    65   62   63 2   
    66   62   72 1   
    67   64   65 1   
    68   64   70 1   
    69   64   71 1   
    70   65   66 1   
    71   65   67 1   
    72   72   73 1   
    73   72   76 1   
    74   73   74 1   
    75   73   77 1   
    76   73   78 1   
    77   74   75 2   
    78   74   79 1   
    79   79   80 1   
    80   79   86 1   
    81   80   81 1   
    82   80   83 1   
    83   80   87 1   
    84   81   82 2   
    85   81   93 1   
    86   83   84 1   
    87   83   85 1   
    88   83   88 1   
    89   84   90 1   
    90   84   91 1   
    91   84   92 1   
    92   85   89 1   
    93   93   94 1   
    94   93  101 1   
    95   94   95 1   
    96   94   97 1   
    97   94  102 1   
    98   95   96 2   
    99   95  112 1   
   100   97   98 1   
   101   97   99 1   
   102   97  103 1   
   103   98  100 1   
   104   98  104 1   
   105   98  105 1   
   106   99  106 1   
   107   99  107 1   
   108   99  108 1   
   109  100  109 1   
   110  100  110 1   
   111  100  111 1   
   112  112  113 1   
   113  112  119 1   
   114  113  114 1   
   115  113  116 1   
   116  113  120 1   
   117  114  115 2   
   118  114  126 1   
   119  116  117 1   
   120  116  118 1   
   121  116  121 1   
   122  117  123 1   
   123  117  124 1   
   124  117  125 1   
   125  118  122 1   
   126  126  127 1   
   127  126  133 1   
   128  127  128 1   
   129  127  130 1   
   130  127  134 1   
   131  128  129 2   
   132  128  140 1   
   133  130  131 1   
   134  130  132 1   
   135  130  135 1   
   136  131  137 1   
   137  131  138 1   
   138  131  139 1   
   139  132  136 1   
   140  140  141 1   
   141  140  149 1   
   142  141  142 1   
   143  141  144 1   
   144  141  150 1   
   145  142  143 2   
   146  142  162 1   
   147  144  145 1   
   148  144  151 1   
   149  144  152 1   
   150  145  146 1   
   151  145  153 1   
   152  145  154 1   
   153  146  147 1   
   154  146  155 1   
   155  146  156 1   
   156  147  148 1   
   157  147  157 1   
   158  147  158 1   
   159  148  159 1   
   160  148  160 1   
   161  148  161 1   
   162  162  163 1   
   163  162  171 1   
   164  163  164 1   
   165  163  166 1   
   166  163  172 1   
   167  164  165 2   
   168  164  177 1   
   169  166  167 1   
   170  166  173 1   
   171  166  174 1   
   172  167  168 1   
   173  167  175 1   
   174  167  176 1   
   175  168  169 1   
   176  168  170 1   
   177  177  178 1   
   178  177  182 1   
   179  178  179 1   
   180  178  180 1   
   181  178  181 1   
   182  184  185 1   
   183  184  186 1   
   184  187  188 1   
   185  187  189 1   
@<TRIPOS>SUBSTRUCTURE
     1 MOL         1 TEMP              0 ****  ****    0 ROOT
