@<TRIPOS>MOLECULE
MOL
  179   176     1     0     0
SMALL
resp


@<TRIPOS>ATOM
      1 C1         -1.9430   -3.2870    6.4950 c3        1 MOL     -0.353803
      2 C2         -1.6630   -3.2000    4.9550 c         1 MOL      0.719395
      3 O1         -2.5790   -3.2230    4.1670 o         1 MOL     -0.565455
      4 H1         -2.3750   -4.2580    6.7310 hc        1 MOL      0.093604
      5 H2         -1.0090   -3.1630    7.0420 hc        1 MOL      0.093604
      6 H3         -2.6400   -2.4990    6.7830 hc        1 MOL      0.093604
      7 N1         -0.3690   -3.1980    4.5220 n         1 MOL     -0.617782
      8 C3          0.0440   -3.1600    3.1100 c3        1 MOL     -0.072081
      9 C4          0.1960   -4.6140    2.5740 c         1 MOL      0.687086
     10 O2          0.8080   -5.5020    3.1640 o         1 MOL     -0.541913
     11 C5          1.3370   -2.3270    2.9580 c3        1 MOL     -0.057841
     12 C6          1.6700   -1.8690    1.5480 c         1 MOL      0.724978
     13 O3          2.7760   -1.2970    1.3440 o         1 MOL     -0.780145
     14 O4          0.8620   -2.0220    0.5840 o         1 MOL     -0.780145
     15 H4          0.3770   -3.0090    5.1640 hn        1 MOL      0.329083
     16 H5         -0.8040   -2.6880    2.6160 h1        1 MOL      0.099485
     17 H6          2.1990   -2.9520    3.2160 hc        1 MOL      0.040566
     18 H7          1.2210   -1.4780    3.6330 hc        1 MOL      0.040566
     19 N2         -0.2410   -4.7560    1.2740 n         1 MOL     -0.466724
     20 C7         -0.0390   -6.0090    0.5830 c3        1 MOL      0.063741
     21 C8          1.2440   -6.2910   -0.2210 c         1 MOL      0.415146
     22 O5          1.6460   -7.4340   -0.2190 o         1 MOL     -0.526628
     23 C9         -1.2480   -6.1530   -0.3780 c3        1 MOL     -0.295524
     24 C10        -1.6210   -4.9050   -1.3350 c3        1 MOL      0.019911
     25 C11        -2.8120   -5.1100   -2.1980 c3        1 MOL     -0.087066
     26 C12        -4.1250   -5.2360   -1.4130 c3        1 MOL      0.115096
     27 N3         -5.3110   -5.4500   -2.2910 n4        1 MOL     -0.341874
     28 H8         -0.6950   -3.9610    0.8520 hn        1 MOL      0.231206
     29 H9         -0.1580   -6.7930    1.3350 h1        1 MOL      0.111853
     30 H10        -2.0870   -6.4580    0.2360 hc        1 MOL      0.097179
     31 H11        -1.1090   -6.9310   -1.1380 hc        1 MOL      0.097179
     32 H12        -0.7410   -4.6810   -1.9370 hc        1 MOL      0.070874
     33 H13        -1.7860   -4.0110   -0.7490 hc        1 MOL      0.070874
     34 H14        -2.7530   -6.0140   -2.7940 hc        1 MOL      0.036359
     35 H15        -2.9110   -4.2500   -2.8620 hc        1 MOL      0.036359
     36 H16        -4.3140   -4.2590   -0.9730 hx        1 MOL      0.066959
     37 H17        -4.0660   -6.0090   -0.6470 hx        1 MOL      0.066959
     38 H18        -6.1730   -5.5160   -1.7790 hn        1 MOL      0.317201
     39 H19        -5.5070   -4.6630   -2.9010 hn        1 MOL      0.317201
     40 H20        -5.2860   -6.2580   -2.8830 hn        1 MOL      0.317201
     41 N4          1.8430   -5.2880   -0.8640 n         1 MOL     -0.182267
     42 C13         3.0390   -5.4010   -1.6760 c3        1 MOL      0.040267
     43 C14         4.2880   -4.9010   -0.9740 c         1 MOL      0.418818
     44 O6          5.3770   -5.3570   -1.2620 o         1 MOL     -0.525858
     45 C15         2.7840   -4.7390   -3.0500 c3        1 MOL     -0.164141
     46 C16         2.7340   -3.2140   -3.0690 c         1 MOL      0.800071
     47 O7          2.7900   -2.6610   -4.2110 o         1 MOL     -0.726844
     48 O8          2.6360   -2.5140   -2.0640 o         1 MOL     -0.726844
     49 H21         1.3210   -4.4210   -0.8290 hn        1 MOL      0.127006
     50 H22         3.1220   -6.4630   -1.8850 h1        1 MOL      0.091245
     51 H23         1.8480   -5.0550   -3.5080 hc        1 MOL      0.042560
     52 H24         3.6030   -5.0510   -3.6990 hc        1 MOL      0.042560
     53 N5          4.1350   -4.0620    0.0500 n         1 MOL     -0.076506
     54 C17         5.2400   -3.5960    0.9060 c3        1 MOL     -0.421675
     55 C18         5.9730   -2.3570    0.2750 c         1 MOL      0.736663
     56 O9          7.1430   -2.1900    0.6920 o         1 MOL     -0.623366
     57 H25         3.2250   -3.7510    0.3630 hn        1 MOL      0.157206
     58 H26         6.0850   -4.2800    0.9870 h1        1 MOL      0.171034
     59 H27         4.7940   -3.2170    1.8230 h1        1 MOL      0.171034
     60 N6          5.4070   -1.5670   -0.6520 n         1 MOL     -0.493866
     61 C19         6.2680   -0.5640   -1.3130 c3        1 MOL      0.017057
     62 C20         6.4970    0.7000   -0.4280 c         1 MOL      0.254405
     63 O10         6.9120    1.7740   -0.9700 o         1 MOL     -0.424938
     64 C21         5.6980   -0.2660   -2.7000 c3        1 MOL     -0.124891
     65 C22         4.4830    0.6770   -2.7460 c         1 MOL      0.515609
     66 N7          4.6770    1.8410   -3.2910 n         1 MOL     -0.603618
     67 O11         3.5750    0.5670   -1.9640 o         1 MOL     -0.569675
     68 H28         4.5680   -1.8430   -1.1350 hn        1 MOL      0.300180
     69 H29         7.2670   -0.9460   -1.5040 h1        1 MOL      0.151096
     70 H30         5.3590   -1.1490   -3.2420 hc        1 MOL      0.059923
     71 H31         6.5440    0.1530   -3.2550 hc        1 MOL      0.059923
     72 H32         5.3110    1.8340   -4.0770 hn        1 MOL      0.322716
     73 H33         3.9230    2.5100   -3.2480 hn        1 MOL      0.322716
     74 N8          6.3210    0.5950    0.9020 n         1 MOL     -0.091689
     75 C23         6.4160    1.6630    1.9030 c3        1 MOL     -0.277647
     76 C24         5.3940    2.8300    1.8160 c         1 MOL      0.680603
     77 O12         5.5810    3.8720    2.3460 o         1 MOL     -0.541961
     78 H34         6.0640   -0.3230    1.2190 hn        1 MOL      0.253471
     79 H35         7.4490    1.9580    2.1160 h1        1 MOL      0.113612
     80 H36         6.0750    1.1530    2.8030 h1        1 MOL      0.113612
     81 N9          4.1720    2.5730    1.3140 n         1 MOL     -0.559183
     82 C25         2.9820    3.4630    1.2090 c3        1 MOL      0.541090
     83 C26         1.6990    2.5960    1.1620 c         1 MOL      0.355580
     84 O13         1.8750    1.4570    0.6930 o         1 MOL     -0.466860
     85 C27         3.0300    4.4170    0.0520 c3        1 MOL     -0.312719
     86 C28         4.0770    5.5570    0.0710 ca        1 MOL      0.106525
     87 C29         5.2790    5.3770   -0.6570 ca        1 MOL     -0.214215
     88 C30         3.8150    6.8080    0.6170 ca        1 MOL     -0.214215
     89 C31         6.1940    6.4090   -0.7400 ca        1 MOL     -0.141227
     90 C32         4.7850    7.8190    0.6370 ca        1 MOL     -0.141227
     91 C33         5.9520    7.6560   -0.1250 ca        1 MOL      0.238815
     92 O14         6.8160    8.6680   -0.3830 oh        1 MOL     -0.457706
     93 H37         4.0190    1.5770    1.2150 hn        1 MOL      0.269487
     94 H38         2.9670    4.0400    2.1310 h1        1 MOL     -0.065163
     95 H39         2.0440    4.8810    0.0170 hc        1 MOL      0.089610
     96 H40         3.1870    3.6950   -0.7500 hc        1 MOL      0.089610
     97 H41         5.5110    4.4100   -1.0840 ha        1 MOL      0.124723
     98 H42         2.8220    6.9610    1.0100 ha        1 MOL      0.124723
     99 H43         7.0800    6.3100   -1.3470 ha        1 MOL      0.111508
    100 H44         4.5320    8.8390    0.8390 ha        1 MOL      0.111508
    101 H45         6.6350    9.5030    0.0690 ho        1 MOL      0.353589
    102 N10         0.5580    3.1080    1.6660 n         1 MOL     -0.542917
    103 C34        -0.7950    2.5520    1.6750 c3        1 MOL     -0.052868
    104 C35        -1.7590    3.4480    0.8810 c         1 MOL      0.729047
    105 O15        -2.0920    4.5450    1.2580 o         1 MOL     -0.597012
    106 C36        -1.3010    2.2310    3.0880 c3        1 MOL      0.120390
    107 C37        -0.3010    1.3430    3.8600 c3        1 MOL      0.030851
    108 C38        -2.7630    1.6160    3.1730 c3        1 MOL     -0.182489
    109 C39        -0.4390    1.3970    5.3880 c3        1 MOL     -0.327467
    110 H46         0.6570    4.0810    1.9290 hn        1 MOL      0.325062
    111 H47        -0.8030    1.6130    1.1320 h1        1 MOL     -0.007273
    112 H48        -1.5090    3.1860    3.5700 hc        1 MOL      0.009243
    113 H49         0.6950    1.6390    3.5220 hc        1 MOL      0.049155
    114 H50        -0.4690    0.3510    3.4500 hc        1 MOL      0.049155
    115 H51        -3.4810    2.2350    2.6470 hc        1 MOL      0.048703
    116 H52        -2.6920    0.6610    2.6470 hc        1 MOL      0.048703
    117 H53        -3.0580    1.5070    4.2110 hc        1 MOL      0.048703
    118 H54        -1.4850    1.5040    5.6630 hc        1 MOL      0.081853
    119 H55        -0.0290    0.4890    5.8320 hc        1 MOL      0.081853
    120 H56         0.0150    2.3230    5.7420 hc        1 MOL      0.081853
    121 N11        -2.2220    2.9820   -0.2300 n         1 MOL     -0.673115
    122 C40        -3.2700    3.6540   -0.9750 c3        1 MOL      0.310766
    123 C41        -4.6920    3.6890   -0.2880 c         1 MOL      0.306510
    124 O16        -4.9260    2.7230    0.4520 o         1 MOL     -0.370320
    125 C42        -3.2210    3.0680   -2.3930 c3        1 MOL     -0.362066
    126 O17        -4.2400    2.0230   -2.4830 oh        1 MOL     -0.236080
    127 H57        -1.9910    2.0560   -0.5580 hn        1 MOL      0.512248
    128 H58        -3.0420    4.7070   -1.0910 h1        1 MOL      0.014445
    129 H59        -2.2320    2.6330   -2.5210 h1        1 MOL      0.144407
    130 H60        -3.5620    3.8720   -3.0470 h1        1 MOL      0.144407
    131 H61        -4.2410    1.6500   -3.3660 ho        1 MOL      0.338073
    132 N12        -5.6050    4.5090   -0.7320 n         1 MOL     -0.283663
    133 C43        -6.9770    4.5090   -0.2250 c3        1 MOL      0.133577
    134 C44        -7.8240    3.3370   -0.8760 c         1 MOL      0.452083
    135 O18        -8.9360    3.0890   -0.4060 o         1 MOL     -0.509339
    136 C45        -7.6340    5.8680   -0.4750 c3        1 MOL     -0.306477
    137 H62        -5.2920    5.3170   -1.2590 hn        1 MOL      0.254920
    138 H63        -6.9820    4.3330    0.8560 h1        1 MOL      0.093094
    139 H64        -7.0290    6.6310    0.0110 hc        1 MOL      0.100703
    140 H65        -7.7300    5.9930   -1.5520 hc        1 MOL      0.100703
    141 H66        -8.5910    5.9900    0.0440 hc        1 MOL      0.100703
    142 N13        -7.2560    2.5730   -1.8820 n         1 MOL     -0.332311
    143 C46        -7.8030    1.2780   -2.3430 c3        1 MOL      0.203846
    144 C47        -7.1810    0.0850   -1.5940 c         1 MOL      0.391824
    145 O19        -7.8010   -0.9770   -1.4890 o         1 MOL     -0.532915
    146 C48        -7.5190    1.2060   -3.8140 c3        1 MOL     -0.199976
    147 H67        -6.2800    2.7310   -2.0930 hn        1 MOL      0.106982
    148 H68        -8.8700    1.1540   -2.1910 h1        1 MOL      0.085162
    149 H69        -6.4440    1.3330   -3.9450 hc        1 MOL      0.049668
    150 H70        -7.8670    0.2450   -4.1800 hc        1 MOL      0.049668
    151 H71        -8.0180    2.0370   -4.3120 hc        1 MOL      0.049668
    152 N14        -5.9840    0.2340   -0.9300 n         1 MOL     -0.029087
    153 C49        -5.3220   -0.8040   -0.1730 c3        1 MOL     -0.221726
    154 C50        -5.8230   -0.9310    1.2490 c         1 MOL      0.521050
    155 O20        -6.0420   -2.0500    1.7530 o         1 MOL     -0.563538
    156 C51        -3.8060   -0.5810   -0.1600 c3        1 MOL     -0.152644
    157 C52        -3.1950   -0.8940   -1.5150 c3        1 MOL      0.116383
    158 C53        -1.6980   -0.5850   -1.6550 c         1 MOL      0.587255
    159 O21        -0.9990   -1.2650   -2.4880 o         1 MOL     -0.710500
    160 O22        -1.2020    0.3870   -1.0260 o         1 MOL     -0.710500
    161 H72        -5.5500    1.1410   -0.9290 hn        1 MOL     -0.132654
    162 H73        -5.5110   -1.7710   -0.6310 h1        1 MOL      0.106081
    163 H74        -3.2640   -1.1510    0.5870 hc        1 MOL      0.083442
    164 H75        -3.6660    0.4570    0.1530 hc        1 MOL      0.083442
    165 H76        -3.6790   -0.4140   -2.3640 hc        1 MOL     -0.035928
    166 H77        -3.3290   -1.9540   -1.7500 hc        1 MOL     -0.035928
    167 N15        -6.0200    0.2140    1.8820 n         1 MOL     -0.149368
    168 C54        -6.6240    0.3280    3.2480 c3        1 MOL     -0.217148
    169 H78        -6.7530   -0.6670    3.6720 h1        1 MOL      0.104650
    170 H79        -5.9640    0.9120    3.8890 h1        1 MOL      0.104650
    171 H80        -7.5940    0.8210    3.1770 h1        1 MOL      0.104650
    172 H81        -5.7900    1.0470    1.3660 hn        1 MOL      0.167560
    173 Ca1         1.3230   -0.3460   -1.3460 Ca        1 MOL      1.752185
    174 O23         1.6840   -0.3200   -4.0940 oh        1 MOL     -0.849023
    175 H82         1.9160    0.1640   -4.8910 ho        1 MOL      0.393958
    176 H83         2.0160   -1.2130   -4.2560 ho        1 MOL      0.393958
    177 O24         0.8730    2.1050   -2.1630 oh        1 MOL     -0.849023
    178 H84         1.0360    2.9870   -2.5050 ho        1 MOL      0.393958
    179 H85        -0.0680    1.9770   -2.2790 ho        1 MOL      0.393958
@<TRIPOS>BOND
     1    1    2 1   
     2    1    4 1   
     3    1    5 1   
     4    1    6 1   
     5    2    3 2   
     6    2    7 1   
     7    7    8 1   
     8    7   15 1   
     9    8    9 1   
    10    8   11 1   
    11    8   16 1   
    12    9   10 2   
    13    9   19 1   
    14   11   12 1   
    15   11   17 1   
    16   11   18 1   
    17   12   13 1   
    18   12   14 1   
    19   19   20 1   
    20   19   28 1   
    21   20   21 1   
    22   20   23 1   
    23   20   29 1   
    24   21   22 2   
    25   21   41 1   
    26   23   24 1   
    27   23   30 1   
    28   23   31 1   
    29   24   25 1   
    30   24   32 1   
    31   24   33 1   
    32   25   26 1   
    33   25   34 1   
    34   25   35 1   
    35   26   27 1   
    36   26   36 1   
    37   26   37 1   
    38   27   38 1   
    39   27   39 1   
    40   27   40 1   
    41   41   42 1   
    42   41   49 1   
    43   42   43 1   
    44   42   45 1   
    45   42   50 1   
    46   43   44 2   
    47   43   53 1   
    48   45   46 1   
    49   45   51 1   
    50   45   52 1   
    51   46   47 1   
    52   46   48 1   
    53   53   54 1   
    54   53   57 1   
    55   54   55 1   
    56   54   58 1   
    57   54   59 1   
    58   55   56 2   
    59   55   60 1   
    60   60   61 1   
    61   60   68 1   
    62   61   62 1   
    63   61   64 1   
    64   61   69 1   
    65   62   63 2   
    66   62   74 1   
    67   64   65 1   
    68   64   70 1   
    69   64   71 1   
    70   65   66 1   
    71   65   67 2   
    72   66   72 1   
    73   66   73 1   
    74   74   75 1   
    75   74   78 1   
    76   75   76 1   
    77   75   79 1   
    78   75   80 1   
    79   76   77 2   
    80   76   81 1   
    81   81   82 1   
    82   81   93 1   
    83   82   83 1   
    84   82   85 1   
    85   82   94 1   
    86   83   84 2   
    87   83  102 1   
    88   85   86 1   
    89   85   95 1   
    90   85   96 1   
    91   86   87 ar  
    92   86   88 ar  
    93   87   89 ar  
    94   87   97 1   
    95   88   90 ar  
    96   88   98 1   
    97   89   91 ar  
    98   89   99 1   
    99   90   91 ar  
   100   90  100 1   
   101   91   92 1   
   102   92  101 1   
   103  102  103 1   
   104  102  110 1   
   105  103  104 1   
   106  103  106 1   
   107  103  111 1   
   108  104  105 2   
   109  104  121 1   
   110  106  107 1   
   111  106  108 1   
   112  106  112 1   
   113  107  109 1   
   114  107  113 1   
   115  107  114 1   
   116  108  115 1   
   117  108  116 1   
   118  108  117 1   
   119  109  118 1   
   120  109  119 1   
   121  109  120 1   
   122  121  122 1   
   123  121  127 1   
   124  122  123 1   
   125  122  125 1   
   126  122  128 1   
   127  123  124 2   
   128  123  132 1   
   129  125  126 1   
   130  125  129 1   
   131  125  130 1   
   132  126  131 1   
   133  132  133 1   
   134  132  137 1   
   135  133  134 1   
   136  133  136 1   
   137  133  138 1   
   138  134  135 2   
   139  134  142 1   
   140  136  139 1   
   141  136  140 1   
   142  136  141 1   
   143  142  143 1   
   144  142  147 1   
   145  143  144 1   
   146  143  146 1   
   147  143  148 1   
   148  144  145 2   
   149  144  152 1   
   150  146  149 1   
   151  146  150 1   
   152  146  151 1   
   153  152  153 1   
   154  152  161 1   
   155  153  154 1   
   156  153  156 1   
   157  153  162 1   
   158  154  155 2   
   159  154  167 1   
   160  156  157 1   
   161  156  163 1   
   162  156  164 1   
   163  157  158 1   
   164  157  165 1   
   165  157  166 1   
   166  158  159 1   
   167  158  160 1   
   168  167  168 1   
   169  167  172 1   
   170  168  169 1   
   171  168  170 1   
   172  168  171 1   
   173  174  175 1   
   174  174  176 1   
   175  177  178 1   
   176  177  179 1   
@<TRIPOS>SUBSTRUCTURE
     1 MOL         1 TEMP              0 ****  ****    0 ROOT
