@<TRIPOS>MOLECULE
MOL
  172   171     1     0     0
SMALL
resp


@<TRIPOS>ATOM
      1 C1          0.1830    3.9900    5.7500 c3        1 MOL     -0.434369
      2 C2         -0.3460    3.7730    4.2710 c         1 MOL      0.711464
      3 O1          0.4200    3.7900    3.3010 o         1 MOL     -0.555123
      4 H1         -0.5920    4.4710    6.3450 hc        1 MOL      0.112120
      5 H2          0.4330    3.0260    6.1920 hc        1 MOL      0.112120
      6 H3          1.0710    4.6230    5.7300 hc        1 MOL      0.112120
      7 N1         -1.6570    3.6060    3.9960 n         1 MOL     -0.639616
      8 C3         -2.3090    3.4860    2.6970 c3        1 MOL      0.272225
      9 C4         -2.2720    4.7400    1.7890 c         1 MOL      0.572275
     10 O2         -2.2910    5.8540    2.2740 o         1 MOL     -0.593255
     11 C5         -3.7590    2.9390    2.8920 c3        1 MOL     -0.342090
     12 C6         -4.2200    2.3030    1.6240 c         1 MOL      0.504615
     13 O3         -5.4620    2.2850    1.3820 o         1 MOL     -0.591081
     14 O4         -3.4250    1.8820    0.7150 o         1 MOL     -0.591081
     15 H4         -2.2600    3.4940    4.7950 hn        1 MOL      0.292452
     16 H5         -1.8030    2.7030    2.1230 h1        1 MOL      0.009930
     17 H6         -4.4370    3.7540    3.1140 hc        1 MOL      0.095169
     18 H7         -3.7520    2.2210    3.7060 hc        1 MOL      0.095169
     19 N2         -2.4400    4.5050    0.5100 n         1 MOL     -0.381688
     20 C7         -2.7110    5.4720   -0.5630 c3        1 MOL      0.205772
     21 C8         -3.7710    5.0920   -1.6240 c         1 MOL      0.436230
     22 O5         -4.0960    5.9440   -2.3980 o         1 MOL     -0.554166
     23 C9         -1.3880    5.7170   -1.2000 c3        1 MOL     -0.145511
     24 H8         -2.0660    3.5830    0.2890 hn        1 MOL      0.223284
     25 H9         -3.1420    6.3610   -0.0940 h1        1 MOL      0.026901
     26 H10        -1.5140    6.2570   -2.1410 hc        1 MOL      0.034766
     27 H11        -0.8610    6.4490   -0.5930 hc        1 MOL      0.034766
     28 H12        -0.7600    4.8330   -1.3560 hc        1 MOL      0.034766
     29 N3         -4.1100    3.7780   -1.6880 n         1 MOL     -0.340089
     30 C10        -4.8220    3.1940   -2.8730 c3        1 MOL      0.074243
     31 C11        -6.1360    2.4170   -2.5810 c         1 MOL      0.287556
     32 O6         -6.8110    2.1330   -3.5590 o         1 MOL     -0.528342
     33 C12        -3.8310    2.3040   -3.6640 c3        1 MOL     -0.084763
     34 C13        -3.2180    1.3110   -2.7400 c         1 MOL      0.730594
     35 O7         -3.9290    0.6030   -1.9380 o         1 MOL     -0.730335
     36 O8         -1.9940    1.1590   -2.7960 o         1 MOL     -0.730335
     37 H13        -3.7400    3.2400   -0.9150 hn        1 MOL      0.271436
     38 H14        -5.0000    3.9710   -3.6210 h1        1 MOL      0.080931
     39 H15        -3.0330    2.8980   -4.1050 hc        1 MOL      0.031055
     40 H16        -4.3360    1.7510   -4.4510 hc        1 MOL      0.031055
     41 N4         -6.4860    2.0200   -1.3700 n         1 MOL     -0.019981
     42 C14        -7.6830    1.2340   -1.1110 c3        1 MOL     -0.285771
     43 C15        -7.5010   -0.2640   -1.3800 c         1 MOL      0.605037
     44 O9         -8.5360   -0.8760   -1.6040 o         1 MOL     -0.630201
     45 H17        -5.8410    2.1640   -0.6020 hn        1 MOL      0.052524
     46 H18        -8.5490    1.5070   -1.7170 h1        1 MOL      0.123937
     47 H19        -7.8750    1.2830   -0.0400 h1        1 MOL      0.123937
     48 N5         -6.3280   -0.9240   -1.5240 n         1 MOL     -0.226439
     49 C16        -6.2480   -2.3130   -1.8620 c3        1 MOL     -0.049282
     50 C17        -6.1280   -3.2240   -0.6640 c         1 MOL      0.427773
     51 O10        -5.9130   -4.4120   -0.8840 o         1 MOL     -0.483206
     52 C18        -5.2330   -2.5050   -3.0130 c3        1 MOL     -0.185498
     53 C19        -3.8180   -2.4640   -2.4400 c         1 MOL      0.565808
     54 N6         -2.7060   -2.4910   -3.2150 n         1 MOL     -0.649272
     55 O11        -3.6690   -2.2810   -1.2000 o         1 MOL     -0.588138
     56 H20        -5.4870   -0.3810   -1.6150 hn        1 MOL      0.221342
     57 H21        -7.2280   -2.6170   -2.2200 h1        1 MOL      0.118943
     58 H22        -5.2680   -1.7950   -3.8430 hc        1 MOL      0.085328
     59 H23        -5.3870   -3.5010   -3.4230 hc        1 MOL      0.085328
     60 H24        -2.7520   -2.5950   -4.2130 hn        1 MOL      0.326858
     61 H25        -1.8150   -2.2630   -2.7930 hn        1 MOL      0.326858
     62 N7         -6.3660   -2.7690    0.6050 n         1 MOL     -0.305369
     63 C20        -6.1370   -3.4840    1.8560 c3        1 MOL     -0.093219
     64 C21        -4.8280   -4.2320    2.0240 c         1 MOL      0.443491
     65 O12        -4.7340   -5.2450    2.7750 o         1 MOL     -0.572006
     66 H26        -6.6380   -1.8100    0.7160 hn        1 MOL      0.227820
     67 H27        -6.9020   -4.2510    2.0040 h1        1 MOL      0.076346
     68 H28        -6.1700   -2.7700    2.6800 h1        1 MOL      0.076346
     69 N8         -3.7400   -3.7570    1.4170 n         1 MOL     -0.108375
     70 C22        -2.3810   -4.3570    1.5800 c3        1 MOL     -0.306467
     71 C23        -1.3270   -3.2720    1.6500 c         1 MOL      0.624930
     72 O13        -1.2270   -2.5010    0.7250 o         1 MOL     -0.351238
     73 C24        -2.1200   -5.4510    0.5200 c3        1 MOL      0.536267
     74 C25        -3.1880   -6.5040    0.5670 c3        1 MOL     -0.465725
     75 O14        -1.9830   -4.9950   -0.7980 oh        1 MOL     -0.586130
     76 H29        -3.7250   -2.8840    0.9020 hn        1 MOL      0.259306
     77 H30        -2.3700   -4.8450    2.5500 h1        1 MOL      0.090434
     78 H31        -1.2070   -5.9620    0.8050 h1        1 MOL     -0.046639
     79 H32        -1.7210   -4.0720   -0.7650 ho        1 MOL      0.315209
     80 H33        -4.1250   -6.1760    0.1280 hc        1 MOL      0.114533
     81 H34        -2.8910   -7.3450   -0.0670 hc        1 MOL      0.114533
     82 H35        -3.3790   -6.8690    1.5800 hc        1 MOL      0.114533
     83 N9         -0.3830   -3.2490    2.6600 n         1 MOL     -0.670623
     84 C26         0.8810   -2.4660    2.5060 c3        1 MOL      0.023961
     85 C27         1.5750   -2.8190    1.1120 c         1 MOL      0.570562
     86 O15         1.9830   -3.9670    0.9520 o         1 MOL     -0.597389
     87 C28         1.7440   -2.5710    3.8080 c3        1 MOL      0.126482
     88 C29         0.9430   -2.0470    4.9920 c3        1 MOL      0.026987
     89 C30         3.1500   -1.9300    3.6790 c3        1 MOL     -0.061178
     90 C31         1.6870   -1.9440    6.3560 c3        1 MOL     -0.196336
     91 H36        -0.4180   -3.8600    3.4610 hn        1 MOL      0.343761
     92 H37         0.4610   -1.4570    2.4940 h1        1 MOL      0.080301
     93 H38         1.9510   -3.6260    3.9870 hc        1 MOL     -0.014355
     94 H39         0.0750   -2.6770    5.1820 hc        1 MOL      0.010878
     95 H40         0.5470   -1.0540    4.7970 hc        1 MOL      0.010878
     96 H41         3.7860   -2.2380    4.5130 hc        1 MOL      0.004375
     97 H42         3.7000   -2.1120    2.7550 hc        1 MOL      0.004375
     98 H43         2.9800   -0.8610    3.7360 hc        1 MOL      0.004375
     99 H44         2.5180   -1.2420    6.2130 hc        1 MOL      0.043667
    100 H45         1.0720   -1.6250    7.1900 hc        1 MOL      0.043667
    101 H46         2.2160   -2.8760    6.5190 hc        1 MOL      0.043667
    102 N10         1.6710   -1.8880    0.1980 n         1 MOL     -0.380296
    103 C32         2.5340   -1.9750   -1.0320 c3        1 MOL      0.393998
    104 C33         3.9320   -1.5330   -0.7920 c         1 MOL      0.254956
    105 O16         4.1760   -0.7450    0.1090 o         1 MOL     -0.255748
    106 C34         2.0300   -1.3060   -2.3130 c3        1 MOL     -0.261551
    107 C35         0.5910   -1.6140   -2.6980 c         1 MOL      0.706886
    108 O17        -0.3210   -1.4870   -1.8530 o         1 MOL     -0.659563
    109 O18         0.4420   -2.0620   -3.8400 o         1 MOL     -0.659563
    110 H47         1.2430   -1.0040    0.4330 hn        1 MOL     -0.029452
    111 H48         2.6010   -3.0230   -1.3410 h1        1 MOL      0.009850
    112 H49         2.7540   -1.5230   -3.0920 hc        1 MOL      0.048812
    113 H50         2.1930   -0.2380   -2.1670 hc        1 MOL      0.048812
    114 N11         4.9330   -1.8220   -1.6850 n         1 MOL     -0.709643
    115 C36         6.3180   -1.4970   -1.3060 c3        1 MOL      0.753728
    116 C37         6.7060    0.0670   -1.0500 c         1 MOL      0.123762
    117 O19         7.4720    0.3720   -0.1180 o         1 MOL     -0.438196
    118 C38         7.2570   -2.1180   -2.3770 c3        1 MOL     -0.272625
    119 C39         8.7490   -1.9860   -2.0990 ca        1 MOL      0.098870
    120 C40         9.3550   -1.8300   -0.8430 ca        1 MOL     -0.152730
    121 C41         9.5980   -1.8330   -3.2410 ca        1 MOL     -0.152730
    122 C42        10.7420   -1.6140   -0.6530 ca        1 MOL     -0.156700
    123 C43        11.0240   -1.6590   -3.0360 ca        1 MOL     -0.156700
    124 C44        11.5950   -1.4920   -1.7550 ca        1 MOL     -0.064665
    125 H51         4.6780   -2.5140   -2.3690 hn        1 MOL      0.330085
    126 H52         6.4970   -2.0820   -0.4070 h1        1 MOL     -0.047762
    127 H53         6.9930   -1.8260   -3.3960 hc        1 MOL      0.057870
    128 H54         7.0050   -3.1740   -2.2610 hc        1 MOL      0.057870
    129 H55         8.7730   -1.7350    0.0650 ha        1 MOL      0.108998
    130 H56         9.2190   -1.8640   -4.2570 ha        1 MOL      0.108998
    131 H57        11.2320   -1.4660    0.3030 ha        1 MOL      0.114201
    132 H58        11.6420   -1.4110   -3.8840 ha        1 MOL      0.114201
    133 H59        12.6590   -1.4330   -1.5880 ha        1 MOL      0.091022
    134 N12         6.2710    1.0160   -1.8630 n         1 MOL     -0.030742
    135 C45         6.3870    2.4900   -1.5180 c3        1 MOL      0.018798
    136 C46         5.5320    2.8820   -0.3180 c         1 MOL      0.259163
    137 O20         5.7560    3.9240    0.2990 o         1 MOL     -0.534503
    138 C47         5.9780    3.3240   -2.7450 c3        1 MOL     -0.135513
    139 C48         5.1470    2.3880   -3.5550 c3        1 MOL      0.082324
    140 C49         5.6800    0.9510   -3.1770 c3        1 MOL     -0.072114
    141 H60         7.4220    2.7670   -1.3040 h1        1 MOL      0.085868
    142 H61         5.3590    4.1950   -2.5240 hc        1 MOL      0.056458
    143 H62         6.8500    3.5660   -3.3450 hc        1 MOL      0.056458
    144 H63         4.1000    2.4710   -3.2790 hc        1 MOL      0.008824
    145 H64         5.1790    2.5590   -4.6390 hc        1 MOL      0.008824
    146 H65         4.7890    0.3240   -3.1600 h1        1 MOL      0.035171
    147 H66         6.3900    0.5970   -3.9210 h1        1 MOL      0.035171
    148 N13         4.7050    2.0710    0.1850 n         1 MOL      0.035383
    149 C50         3.9940    2.3460    1.4440 c3        1 MOL     -0.202993
    150 C51         4.8470    1.8100    2.5600 c         1 MOL      0.519798
    151 O21         5.0020    2.4110    3.5660 o         1 MOL     -0.552205
    152 C52         2.6180    1.6320    1.5110 c3        1 MOL      0.061948
    153 C53         1.7960    2.0660    0.2220 c3        1 MOL      0.015185
    154 C54         0.3810    1.4360    0.2710 c         1 MOL      0.703075
    155 O22         0.1560    0.3710    0.8890 o         1 MOL     -0.732354
    156 O23        -0.5960    1.9620   -0.2120 o         1 MOL     -0.732354
    157 H67         4.4870    1.2000   -0.2850 hn        1 MOL      0.147105
    158 H68         3.8570    3.4160    1.6390 h1        1 MOL      0.138319
    159 H69         2.0630    1.9950    2.3730 hc        1 MOL      0.029983
    160 H70         2.6230    0.5470    1.5500 hc        1 MOL      0.029983
    161 H71         2.3120    1.9530   -0.7320 hc        1 MOL      0.004051
    162 H72         1.6990    3.1420    0.3910 hc        1 MOL      0.004051
    163 N14         5.5570    0.6490    2.3680 n         1 MOL     -0.085803
    164 C55         6.6590    0.2580    3.2250 c3        1 MOL     -0.258373
    165 H73         6.3360   -0.5430    3.8890 h1        1 MOL      0.086249
    166 H74         7.4900   -0.0910    2.6120 h1        1 MOL      0.086249
    167 H75         6.9790    1.1150    3.8190 h1        1 MOL      0.086249
    168 H76         5.3320    0.0260    1.6080 hn        1 MOL      0.055808
    169 Ca1        -1.9800   -0.1910   -0.3710 Ca        1 MOL      1.717839
    170 O24        -3.5760   -0.9690    1.7340 oh        1 MOL     -1.105895
    171 H77        -3.0580   -0.5490    2.4150 ho        1 MOL      0.497914
    172 H78        -4.4870   -0.7350    1.9330 ho        1 MOL      0.497914
@<TRIPOS>BOND
     1    1    2 1   
     2    1    4 1   
     3    1    5 1   
     4    1    6 1   
     5    2    3 2   
     6    2    7 1   
     7    7    8 1   
     8    7   15 1   
     9    8    9 1   
    10    8   11 1   
    11    8   16 1   
    12    9   10 2   
    13    9   19 1   
    14   11   12 1   
    15   11   17 1   
    16   11   18 1   
    17   12   13 1   
    18   12   14 1   
    19   19   20 1   
    20   19   24 1   
    21   20   21 1   
    22   20   23 1   
    23   20   25 1   
    24   21   22 2   
    25   21   29 1   
    26   23   26 1   
    27   23   27 1   
    28   23   28 1   
    29   29   30 1   
    30   29   37 1   
    31   30   31 1   
    32   30   33 1   
    33   30   38 1   
    34   31   32 2   
    35   31   41 1   
    36   33   34 1   
    37   33   39 1   
    38   33   40 1   
    39   34   35 1   
    40   34   36 1   
    41   41   42 1   
    42   41   45 1   
    43   42   43 1   
    44   42   46 1   
    45   42   47 1   
    46   43   44 2   
    47   43   48 1   
    48   48   49 1   
    49   48   56 1   
    50   49   50 1   
    51   49   52 1   
    52   49   57 1   
    53   50   51 2   
    54   50   62 1   
    55   52   53 1   
    56   52   58 1   
    57   52   59 1   
    58   53   54 1   
    59   53   55 2   
    60   54   60 1   
    61   54   61 1   
    62   62   63 1   
    63   62   66 1   
    64   63   64 1   
    65   63   67 1   
    66   63   68 1   
    67   64   65 2   
    68   64   69 1   
    69   69   70 1   
    70   69   76 1   
    71   70   71 1   
    72   70   73 1   
    73   70   77 1   
    74   71   72 2   
    75   71   83 1   
    76   73   74 1   
    77   73   75 1   
    78   73   78 1   
    79   74   80 1   
    80   74   81 1   
    81   74   82 1   
    82   75   79 1   
    83   83   84 1   
    84   83   91 1   
    85   84   85 1   
    86   84   87 1   
    87   84   92 1   
    88   85   86 2   
    89   85  102 1   
    90   87   88 1   
    91   87   89 1   
    92   87   93 1   
    93   88   90 1   
    94   88   94 1   
    95   88   95 1   
    96   89   96 1   
    97   89   97 1   
    98   89   98 1   
    99   90   99 1   
   100   90  100 1   
   101   90  101 1   
   102  102  103 1   
   103  102  110 1   
   104  103  104 1   
   105  103  106 1   
   106  103  111 1   
   107  104  105 2   
   108  104  114 1   
   109  106  107 1   
   110  106  112 1   
   111  106  113 1   
   112  107  108 1   
   113  107  109 1   
   114  114  115 1   
   115  114  125 1   
   116  115  116 1   
   117  115  118 1   
   118  115  126 1   
   119  116  117 2   
   120  116  134 1   
   121  118  119 1   
   122  118  127 1   
   123  118  128 1   
   124  119  120 ar  
   125  119  121 ar  
   126  120  122 ar  
   127  120  129 1   
   128  121  123 ar  
   129  121  130 1   
   130  122  124 ar  
   131  122  131 1   
   132  123  124 ar  
   133  123  132 1   
   134  124  133 1   
   135  134  135 1   
   136  134  140 1   
   137  135  136 1   
   138  135  138 1   
   139  135  141 1   
   140  136  137 2   
   141  136  148 1   
   142  138  139 1   
   143  138  142 1   
   144  138  143 1   
   145  139  140 1   
   146  139  144 1   
   147  139  145 1   
   148  140  146 1   
   149  140  147 1   
   150  148  149 1   
   151  148  157 1   
   152  149  150 1   
   153  149  152 1   
   154  149  158 1   
   155  150  151 2   
   156  150  163 1   
   157  152  153 1   
   158  152  159 1   
   159  152  160 1   
   160  153  154 1   
   161  153  161 1   
   162  153  162 1   
   163  154  155 1   
   164  154  156 1   
   165  163  164 1   
   166  163  168 1   
   167  164  165 1   
   168  164  166 1   
   169  164  167 1   
   170  170  171 1   
   171  170  172 1   
@<TRIPOS>SUBSTRUCTURE
     1 MOL         1 TEMP              0 ****  ****    0 ROOT
