@<TRIPOS>MOLECULE
MOL
  175   173     1     0     0
SMALL
resp


@<TRIPOS>ATOM
      1 C1         -1.1170    3.1470    6.1440 c3        1 MOL     -0.258607
      2 C2         -1.2070    2.7740    4.6470 c         1 MOL      0.804380
      3 O1         -0.2880    3.0380    3.9300 o         1 MOL     -0.599425
      4 H1         -0.9630    2.2430    6.7340 hc        1 MOL      0.050143
      5 H2         -0.2810    3.8280    6.3000 hc        1 MOL      0.050143
      6 H3         -2.0430    3.6290    6.4550 hc        1 MOL      0.050143
      7 N1         -2.3970    2.4400    4.1520 n         1 MOL     -0.753641
      8 C3         -2.7190    2.1390    2.7050 c3        1 MOL      0.537319
      9 C4         -3.1400    3.3860    1.9990 c         1 MOL      0.567083
     10 O2         -4.0890    4.0630    2.4120 o         1 MOL     -0.608976
     11 C5         -3.7940    1.1170    2.6700 c3        1 MOL     -0.500398
     12 C6         -4.4250    0.7370    1.3060 c         1 MOL      0.910246
     13 O3         -5.5990    0.2450    1.3180 o         1 MOL     -0.659611
     14 O4         -3.8050    1.0220    0.2530 o         1 MOL     -0.659611
     15 H4         -3.1550    2.4910    4.8050 hn        1 MOL      0.337103
     16 H5         -1.7710    1.8330    2.2670 h1        1 MOL     -0.129333
     17 H6         -4.4870    1.7170    3.2590 hc        1 MOL      0.068458
     18 H7         -3.5580    0.1850    3.1740 hc        1 MOL      0.068458
     19 N2         -2.3260    3.8430    1.0070 n         1 MOL     -0.491810
     20 C7         -2.3920    5.1840    0.3600 c3        1 MOL      0.244077
     21 C8         -3.3390    5.1900   -0.8640 c         1 MOL      0.317627
     22 O5         -3.6310    6.2690   -1.4010 o         1 MOL     -0.511239
     23 C9         -0.9560    5.6080    0.0210 c3        1 MOL     -0.380274
     24 H8         -1.6000    3.2130    0.7240 hn        1 MOL      0.308709
     25 H9         -2.6840    5.9140    1.1130 h1        1 MOL      0.038862
     26 H10        -0.5190    4.7510   -0.4930 hc        1 MOL      0.108309
     27 H11        -1.1740    6.4760   -0.6010 hc        1 MOL      0.108309
     28 H12        -0.3950    5.9240    0.8970 hc        1 MOL      0.108309
     29 N3         -3.6630    3.9400   -1.3350 n         1 MOL     -0.261289
     30 C10        -4.4720    3.8310   -2.6310 c3        1 MOL      0.105116
     31 C11        -5.8580    3.2120   -2.4410 c         1 MOL      0.389365
     32 O6         -6.7620    3.3610   -3.3570 o         1 MOL     -0.528905
     33 C12        -3.6230    3.0610   -3.6790 c3        1 MOL      0.055411
     34 C13        -3.0450    1.7310   -3.2440 c         1 MOL      0.710400
     35 O7         -1.8240    1.6460   -2.9630 o         1 MOL     -0.753241
     36 O8         -3.7880    0.7310   -3.0990 o         1 MOL     -0.753241
     37 H13        -3.1970    3.0970   -1.0210 hn        1 MOL      0.250144
     38 H14        -4.6390    4.8280   -3.0360 h1        1 MOL      0.051218
     39 H15        -2.7760    3.6890   -3.9540 hc        1 MOL     -0.033762
     40 H16        -4.2810    2.9500   -4.5410 hc        1 MOL     -0.033762
     41 N4         -6.2290    2.6280   -1.2840 n         1 MOL     -0.211087
     42 C14        -7.4640    1.9820   -1.0560 c3        1 MOL      0.043902
     43 C15        -7.6030    0.5270   -1.5900 c         1 MOL      0.492767
     44 O9         -8.4930    0.2090   -2.4350 o         1 MOL     -0.587913
     45 H17        -5.5580    2.4600   -0.5480 hn        1 MOL      0.133381
     46 H18        -8.3470    2.4880   -1.4580 h1        1 MOL      0.025793
     47 H19        -7.5870    1.9910    0.0240 h1        1 MOL      0.025793
     48 N5         -6.7310   -0.4070   -1.2330 n         1 MOL     -0.260089
     49 C16        -6.7100   -1.8350   -1.5670 c3        1 MOL     -0.002627
     50 C17        -6.5990   -2.7120   -0.3450 c         1 MOL      0.485746
     51 O10        -6.5200   -3.9240   -0.5640 o         1 MOL     -0.543538
     52 C18        -5.7220   -2.0680   -2.7570 c3        1 MOL     -0.157707
     53 C19        -4.3470   -2.5950   -2.3550 c         1 MOL      0.263018
     54 N6         -3.6690   -3.4380   -3.0780 n         1 MOL     -0.476187
     55 O11        -3.8180   -2.2150   -1.2830 o         1 MOL     -0.369152
     56 H20        -6.0450   -0.0430   -0.5830 hn        1 MOL      0.051059
     57 H21        -7.6580   -2.0890   -2.0470 h1        1 MOL      0.107247
     58 H22        -5.5690   -1.1200   -3.2690 hc        1 MOL      0.115893
     59 H23        -6.2750   -2.7290   -3.4320 hc        1 MOL      0.115893
     60 H24        -4.1010   -3.6560   -3.9690 hn        1 MOL      0.284759
     61 H25        -2.7580   -3.7590   -2.7950 hn        1 MOL      0.284759
     62 N7         -6.6550   -2.2130    0.8990 n         1 MOL     -0.383412
     63 C20        -6.6480   -3.0530    2.1120 c3        1 MOL      0.013073
     64 C21        -5.2940   -3.5800    2.4500 c         1 MOL      0.468916
     65 O12        -5.2260   -4.4000    3.3160 o         1 MOL     -0.566409
     66 H26        -6.5890   -1.2190    1.1130 hn        1 MOL      0.275543
     67 H27        -7.3390   -3.8950    2.0410 h1        1 MOL      0.065087
     68 H28        -6.9600   -2.5120    2.9980 h1        1 MOL      0.065087
     69 N8         -4.2080   -3.1800    1.7810 n         1 MOL      0.006782
     70 C22        -2.7910   -3.5890    2.0960 c3        1 MOL     -0.170444
     71 C23        -1.7690   -2.5150    1.6970 c         1 MOL      0.390332
     72 O13        -2.2020   -1.4600    1.1520 o         1 MOL     -0.474371
     73 C24        -2.3880   -4.9360    1.4460 c3        1 MOL      0.321590
     74 C25        -3.2530   -6.1120    2.0410 c3        1 MOL     -0.432325
     75 O14        -2.6120   -4.7080    0.0290 oh        1 MOL     -0.560240
     76 H29        -4.3080   -2.4740    1.0670 hn        1 MOL     -0.016558
     77 H30        -2.8510   -3.7630    3.1680 h1        1 MOL      0.082153
     78 H31        -1.3430   -5.0990    1.6990 h1        1 MOL      0.073064
     79 H32        -3.4970   -4.3630   -0.0150 ho        1 MOL      0.355055
     80 H33        -3.3830   -6.0470    3.1120 hc        1 MOL      0.111960
     81 H34        -4.2780   -6.0600    1.6710 hc        1 MOL      0.111960
     82 H35        -2.7470   -7.0460    1.8190 hc        1 MOL      0.111960
     83 N9         -0.4710   -2.6710    2.0450 n         1 MOL     -0.285591
     84 C26         0.6210   -1.8360    1.6340 c3        1 MOL      0.021008
     85 C27         1.6890   -2.6880    0.8800 c         1 MOL      0.302097
     86 O15         2.1160   -3.7560    1.4120 o         1 MOL     -0.559467
     87 C28         1.2380   -1.0760    2.7810 c3        1 MOL      0.193481
     88 C29         2.0930   -1.8340    3.7830 c3        1 MOL     -0.289531
     89 C30         0.1240   -0.3050    3.5290 c3        1 MOL     -0.355412
     90 C31         2.6420   -1.1190    5.0580 c3        1 MOL     -0.048900
     91 H36        -0.2570   -3.5570    2.4700 hn        1 MOL      0.236054
     92 H37         0.3000   -1.0880    0.9080 h1        1 MOL      0.036513
     93 H38         1.8950   -0.3140    2.3790 hc        1 MOL     -0.020654
     94 H39         3.0000   -2.1860    3.2900 hc        1 MOL      0.076166
     95 H40         1.4260   -2.6480    4.0800 hc        1 MOL      0.076166
     96 H41        -0.6060    0.0270    2.7880 hc        1 MOL      0.097321
     97 H42        -0.2910   -0.9640    4.2990 hc        1 MOL      0.097321
     98 H43         0.4370    0.6400    3.9520 hc        1 MOL      0.097321
     99 H44         1.8780   -0.4460    5.4460 hc        1 MOL      0.018563
    100 H45         2.9860   -1.8150    5.8260 hc        1 MOL      0.018563
    101 H46         3.4660   -0.4420    4.8170 hc        1 MOL      0.018563
    102 N10         2.1320   -2.1110   -0.2270 n         1 MOL     -0.039618
    103 C32         3.3310   -2.5320   -0.9270 c3        1 MOL     -0.018981
    104 C33         4.6120   -1.7910   -0.4980 c         1 MOL      0.514043
    105 O16         4.5480   -1.0030    0.4270 o         1 MOL     -0.416275
    106 C34         3.0500   -2.3660   -2.4350 c3        1 MOL     -0.212626
    107 C35         1.7400   -2.8480   -2.8990 c         1 MOL      0.760756
    108 O17         1.2640   -3.9200   -2.4860 o         1 MOL     -0.709069
    109 O18         1.1800   -2.1860   -3.8240 o         1 MOL     -0.709069
    110 H47         1.5710   -1.3660   -0.5950 hn        1 MOL      0.226652
    111 H48         3.5820   -3.5790   -0.7800 h1        1 MOL      0.065390
    112 H49         3.7880   -2.8410   -3.0900 hc        1 MOL      0.043456
    113 H50         3.2380   -1.3200   -2.6810 hc        1 MOL      0.043456
    114 N11         5.7330   -1.9610   -1.1360 n         1 MOL     -0.544201
    115 C36         7.0000   -1.4550   -0.7360 c3        1 MOL      0.284137
    116 C37         7.1420    0.0810   -0.7000 c         1 MOL      0.308504
    117 O19         7.6140    0.6000    0.3180 o         1 MOL     -0.512529
    118 C38         8.1270   -2.1040   -1.6360 c3        1 MOL     -0.186216
    119 C39         9.4930   -1.5920   -1.1650 ca        1 MOL      0.051122
    120 C40        10.2060   -2.0150   -0.0110 ca        1 MOL     -0.166755
    121 C41        10.1490   -0.6310   -1.9750 ca        1 MOL     -0.166755
    122 C42        11.5360   -1.7250    0.2260 ca        1 MOL     -0.032967
    123 C43        11.4510   -0.2040   -1.7140 ca        1 MOL     -0.032967
    124 C44        12.1940   -0.7890   -0.6480 ca        1 MOL     -0.226010
    125 H51         5.7900   -2.6050   -1.9090 hn        1 MOL      0.271169
    126 H52         7.2300   -1.7950    0.2670 h1        1 MOL      0.055143
    127 H53         7.9950   -1.8930   -2.6980 hc        1 MOL      0.077352
    128 H54         8.1320   -3.1910   -1.5270 hc        1 MOL      0.077352
    129 H55         9.7580   -2.7540    0.6480 ha        1 MOL      0.108657
    130 H56         9.6220   -0.1890   -2.8160 ha        1 MOL      0.108657
    131 H57        11.9880   -2.1640    1.0940 ha        1 MOL      0.092975
    132 H58        11.9490    0.4740   -2.3920 ha        1 MOL      0.092975
    133 H59        13.1950   -0.4780   -0.3880 ha        1 MOL      0.130230
    134 N12         6.5940    0.9250   -1.5590 n         1 MOL      0.009028
    135 C45         6.6640    2.3790   -1.3590 c3        1 MOL     -0.014276
    136 C46         5.6340    2.9360   -0.2930 c         1 MOL      0.401352
    137 O20         5.9730    3.9070    0.3990 o         1 MOL     -0.509911
    138 C47         6.4190    2.8870   -2.7210 c3        1 MOL     -0.135319
    139 C48         5.5870    1.9060   -3.4690 c3        1 MOL     -0.031949
    140 C49         5.9320    0.5830   -2.7900 c3        1 MOL     -0.087244
    141 H60         7.6100    2.7480   -0.9600 h1        1 MOL      0.073941
    142 H61         5.9630    3.8730   -2.6850 hc        1 MOL      0.057485
    143 H62         7.3890    2.9330   -3.2180 hc        1 MOL      0.057485
    144 H63         4.5180    2.1330   -3.4410 hc        1 MOL      0.038633
    145 H64         5.9240    1.7670   -4.4930 hc        1 MOL      0.038633
    146 H65         5.0770   -0.0760   -2.7120 h1        1 MOL      0.036659
    147 H66         6.7480    0.0700   -3.3090 h1        1 MOL      0.036659
    148 N13         4.5020    2.2990   -0.0990 n         1 MOL     -0.183291
    149 C50         3.7230    2.5320    1.0500 c3        1 MOL     -0.371491
    150 C51         4.4940    2.2030    2.3510 c         1 MOL      0.555998
    151 O21         4.3490    2.8810    3.3270 o         1 MOL     -0.582848
    152 C52         2.4310    1.7890    0.9760 c3        1 MOL      0.101701
    153 C53         1.5460    2.3180   -0.1550 c3        1 MOL     -0.297140
    154 C54         0.3600    1.3560   -0.3920 c         1 MOL      0.848970
    155 O22         0.5720    0.2560   -0.9310 o         1 MOL     -0.774339
    156 O23        -0.8180    1.6950   -0.1850 o         1 MOL     -0.774339
    157 H67         4.2970    1.4210   -0.5580 hn        1 MOL      0.279212
    158 H68         3.6150    3.6120    1.0180 h1        1 MOL      0.165818
    159 H69         1.8760    1.9970    1.8890 hc        1 MOL      0.083251
    160 H70         2.6570    0.7260    0.9450 hc        1 MOL      0.083251
    161 H71         2.0900    2.3850   -1.0980 hc        1 MOL      0.072091
    162 H72         1.1170    3.2820    0.1090 hc        1 MOL      0.072091
    163 N14         5.3390    1.2120    2.3980 n         1 MOL     -0.006303
    164 C55         6.2490    0.9420    3.5710 c3        1 MOL     -0.298303
    165 H73         6.1340   -0.0940    3.8890 h1        1 MOL      0.108111
    166 H74         7.2830    1.1190    3.2770 h1        1 MOL      0.108111
    167 H75         5.9860    1.6060    4.3950 h1        1 MOL      0.108111
    168 H76         5.2780    0.5500    1.6450 hn        1 MOL      0.053768
    169 Ca1        -2.0230   -0.3670   -1.2620 Ca        1 MOL      1.684432
    170 O24        -1.4600   -1.4980   -3.6270 oh        1 MOL     -0.763088
    171 H77        -0.6330   -1.9600   -3.7370 ho        1 MOL      0.364463
    172 H78        -1.9160   -1.6190   -4.4720 ho        1 MOL      0.364463
    173 O25        -0.8090   -2.7120   -1.1360 oh        1 MOL     -0.763088
    174 H79        -0.2090   -3.0270   -1.8050 ho        1 MOL      0.364463
    175 H80        -1.1550   -3.5090   -0.7220 ho        1 MOL      0.364463
@<TRIPOS>BOND
     1    1    2 1   
     2    1    4 1   
     3    1    5 1   
     4    1    6 1   
     5    2    3 2   
     6    2    7 1   
     7    7    8 1   
     8    7   15 1   
     9    8    9 1   
    10    8   11 1   
    11    8   16 1   
    12    9   10 2   
    13    9   19 1   
    14   11   12 1   
    15   11   17 1   
    16   11   18 1   
    17   12   13 1   
    18   12   14 1   
    19   19   20 1   
    20   19   24 1   
    21   20   21 1   
    22   20   23 1   
    23   20   25 1   
    24   21   22 2   
    25   21   29 1   
    26   23   26 1   
    27   23   27 1   
    28   23   28 1   
    29   29   30 1   
    30   29   37 1   
    31   30   31 1   
    32   30   33 1   
    33   30   38 1   
    34   31   32 2   
    35   31   41 1   
    36   33   34 1   
    37   33   39 1   
    38   33   40 1   
    39   34   35 1   
    40   34   36 1   
    41   41   42 1   
    42   41   45 1   
    43   42   43 1   
    44   42   46 1   
    45   42   47 1   
    46   43   44 2   
    47   43   48 1   
    48   48   49 1   
    49   48   56 1   
    50   49   50 1   
    51   49   52 1   
    52   49   57 1   
    53   50   51 2   
    54   50   62 1   
    55   52   53 1   
    56   52   58 1   
    57   52   59 1   
    58   53   54 1   
    59   53   55 2   
    60   54   60 1   
    61   54   61 1   
    62   62   63 1   
    63   62   66 1   
    64   63   64 1   
    65   63   67 1   
    66   63   68 1   
    67   64   65 2   
    68   64   69 1   
    69   69   70 1   
    70   69   76 1   
    71   70   71 1   
    72   70   73 1   
    73   70   77 1   
    74   71   72 2   
    75   71   83 1   
    76   73   74 1   
    77   73   75 1   
    78   73   78 1   
    79   74   80 1   
    80   74   81 1   
    81   74   82 1   
    82   75   79 1   
    83   83   84 1   
    84   83   91 1   
    85   84   85 1   
    86   84   87 1   
    87   84   92 1   
    88   85   86 2   
    89   85  102 1   
    90   87   88 1   
    91   87   89 1   
    92   87   93 1   
    93   88   90 1   
    94   88   94 1   
    95   88   95 1   
    96   89   96 1   
    97   89   97 1   
    98   89   98 1   
    99   90   99 1   
   100   90  100 1   
   101   90  101 1   
   102  102  103 1   
   103  102  110 1   
   104  103  104 1   
   105  103  106 1   
   106  103  111 1   
   107  104  105 2   
   108  104  114 1   
   109  106  107 1   
   110  106  112 1   
   111  106  113 1   
   112  107  108 1   
   113  107  109 1   
   114  114  115 1   
   115  114  125 1   
   116  115  116 1   
   117  115  118 1   
   118  115  126 1   
   119  116  117 2   
   120  116  134 1   
   121  118  119 1   
   122  118  127 1   
   123  118  128 1   
   124  119  120 ar  
   125  119  121 ar  
   126  120  122 ar  
   127  120  129 1   
   128  121  123 ar  
   129  121  130 1   
   130  122  124 ar  
   131  122  131 1   
   132  123  124 ar  
   133  123  132 1   
   134  124  133 1   
   135  134  135 1   
   136  134  140 1   
   137  135  136 1   
   138  135  138 1   
   139  135  141 1   
   140  136  137 2   
   141  136  148 1   
   142  138  139 1   
   143  138  142 1   
   144  138  143 1   
   145  139  140 1   
   146  139  144 1   
   147  139  145 1   
   148  140  146 1   
   149  140  147 1   
   150  148  149 1   
   151  148  157 1   
   152  149  150 1   
   153  149  152 1   
   154  149  158 1   
   155  150  151 2   
   156  150  163 1   
   157  152  153 1   
   158  152  159 1   
   159  152  160 1   
   160  153  154 1   
   161  153  161 1   
   162  153  162 1   
   163  154  155 1   
   164  154  156 1   
   165  163  164 1   
   166  163  168 1   
   167  164  165 1   
   168  164  166 1   
   169  164  167 1   
   170  170  171 1   
   171  170  172 1   
   172  173  174 1   
   173  173  175 1   
@<TRIPOS>SUBSTRUCTURE
     1 MOL         1 TEMP              0 ****  ****    0 ROOT
