@<TRIPOS>MOLECULE
MOL
  183   181     1     0     0
SMALL
resp


@<TRIPOS>ATOM
      1 C1         -0.1500    2.2580    6.3210 c3        1 MOL     -0.415659
      2 C2         -0.6500    2.2190    4.8320 c         1 MOL      0.757283
      3 O1          0.0890    2.8070    4.0390 o         1 MOL     -0.578813
      4 H1          0.8000    1.7290    6.3990 hc        1 MOL      0.091017
      5 H2         -0.0150    3.2940    6.6320 hc        1 MOL      0.091017
      6 H3         -0.8870    1.7780    6.9650 hc        1 MOL      0.091017
      7 N1         -1.8350    1.8010    4.5630 n         1 MOL     -0.559790
      8 C3         -2.5130    1.7830    3.2040 c3        1 MOL      0.075898
      9 C4         -2.8080    3.0870    2.5640 c         1 MOL      0.631901
     10 O2         -3.4610    3.8740    3.2780 o         1 MOL     -0.596317
     11 C5         -3.7830    0.9930    3.2110 c3        1 MOL     -0.187949
     12 C6         -4.2900    0.5840    1.8430 c         1 MOL      0.856978
     13 O3         -5.3970   -0.0190    1.7240 o         1 MOL     -0.722042
     14 O4         -3.5990    0.8200    0.7960 o         1 MOL     -0.722042
     15 H4         -2.2370    1.1620    5.2300 hn        1 MOL      0.307687
     16 H5         -1.9300    1.2610    2.4440 h1        1 MOL      0.007320
     17 H6         -4.6380    1.5330    3.6340 hc        1 MOL      0.039365
     18 H7         -3.6550    0.0690    3.7640 hc        1 MOL      0.039365
     19 N2         -2.4540    3.3830    1.2790 n         1 MOL     -0.415154
     20 C7         -2.5000    4.8280    0.7910 c3        1 MOL      0.017462
     21 C8         -3.5440    4.8370   -0.3630 c         1 MOL      0.539320
     22 O5         -4.4280    5.6890   -0.3060 o         1 MOL     -0.605113
     23 C9         -1.0860    5.2420    0.2110 c3        1 MOL      0.023569
     24 C10         0.0290    4.9880    1.3240 c3        1 MOL      0.317246
     25 C11        -1.1080    6.7370   -0.1190 c3        1 MOL     -0.331623
     26 C12         1.4320    5.5870    1.0390 c3        1 MOL     -0.231704
     27 H8         -2.2090    2.6700    0.6180 hn        1 MOL      0.209582
     28 H9         -2.9200    5.5150    1.5360 h1        1 MOL      0.069334
     29 H10        -0.8830    4.5760   -0.6250 hc        1 MOL      0.023674
     30 H11         0.2460    3.9410    1.5220 hc        1 MOL     -0.048200
     31 H12        -0.3740    5.3530    2.2680 hc        1 MOL     -0.048200
     32 H13        -0.0940    7.0790   -0.3610 hc        1 MOL      0.067595
     33 H14        -1.8480    6.9230   -0.9010 hc        1 MOL      0.067595
     34 H15        -1.4970    7.3370    0.7070 hc        1 MOL      0.067595
     35 H16         1.3590    6.6540    1.2520 hc        1 MOL      0.032953
     36 H17         2.1360    5.1290    1.7380 hc        1 MOL      0.032953
     37 H18         1.7600    5.3670    0.0260 hc        1 MOL      0.032953
     38 N3         -3.5520    3.8610   -1.2580 n         1 MOL     -0.186307
     39 C13        -4.4050    3.7290   -2.4030 c3        1 MOL     -0.162238
     40 C14        -5.7370    2.9540   -2.1340 c         1 MOL      0.414087
     41 O6         -6.5410    2.7070   -3.0530 o         1 MOL     -0.493024
     42 C15        -3.6290    3.1900   -3.6310 c3        1 MOL     -0.020228
     43 C16        -2.8980    1.8680   -3.5140 c         1 MOL      0.753851
     44 O7         -3.3790    0.9840   -2.7200 o         1 MOL     -0.694716
     45 O8         -2.0300    1.6010   -4.2980 o         1 MOL     -0.694716
     46 H19        -2.8210    3.1670   -1.1710 hn        1 MOL      0.177267
     47 H20        -4.7170    4.7400   -2.6620 h1        1 MOL      0.103236
     48 H21        -2.9350    3.9680   -3.9160 hc        1 MOL      0.002801
     49 H22        -4.3360    3.0580   -4.4620 hc        1 MOL      0.002801
     50 N4         -5.9190    2.5150   -0.8760 n         1 MOL     -0.170548
     51 C17        -7.2450    1.9870   -0.4440 c3        1 MOL     -0.084974
     52 C18        -7.6240    0.6430   -1.0660 c         1 MOL      0.586425
     53 O9         -8.4970    0.5790   -1.9460 o         1 MOL     -0.570587
     54 H23        -5.1450    2.5310   -0.2290 hn        1 MOL      0.180234
     55 H24        -8.0130    2.7080   -0.7130 h1        1 MOL      0.040663
     56 H25        -7.3810    1.9380    0.6320 h1        1 MOL      0.040663
     57 N5         -6.9780   -0.3830   -0.5010 n         1 MOL     -0.448883
     58 C19        -7.2220   -1.7490   -0.8880 c3        1 MOL      0.076402
     59 C20        -7.0460   -2.8570    0.1400 c         1 MOL      0.335514
     60 O10        -7.2010   -4.0650   -0.2480 o         1 MOL     -0.544634
     61 C21        -6.4500   -2.1120   -2.1230 c3        1 MOL     -0.098896
     62 C22        -4.9340   -2.2090   -1.8560 c         1 MOL      0.672372
     63 O11        -4.1300   -2.0820   -2.8570 o         1 MOL     -0.761954
     64 O12        -4.4970   -2.0790   -0.7160 o         1 MOL     -0.761954
     65 H26        -6.4110   -0.1920    0.3110 hn        1 MOL      0.252240
     66 H27        -8.2600   -1.7160   -1.2290 h1        1 MOL      0.050687
     67 H28        -6.5330   -1.3280   -2.8770 hc        1 MOL      0.065128
     68 H29        -6.8310   -2.9490   -2.7060 hc        1 MOL      0.065128
     69 N6         -6.6210   -2.5530    1.4030 n         1 MOL     -0.208539
     70 C23        -6.4870   -3.5820    2.5250 c3        1 MOL     -0.154563
     71 C24        -5.1470   -4.2840    2.4490 c         1 MOL      0.661272
     72 O13        -4.8020   -5.0310    3.3390 o         1 MOL     -0.618871
     73 H30        -6.5200   -1.5630    1.5330 hn        1 MOL      0.224183
     74 H31        -7.3220   -4.2670    2.3990 h1        1 MOL      0.085032
     75 H32        -6.6190   -3.1410    3.5070 h1        1 MOL      0.085032
     76 N7         -4.3560   -4.0940    1.3640 n         1 MOL     -0.436019
     77 C25        -2.9150   -4.4630    1.3500 c3        1 MOL      0.185281
     78 C26        -1.9290   -3.2400    1.5340 c         1 MOL      0.507038
     79 O14        -2.2310   -2.0780    1.2780 o         1 MOL     -0.553325
     80 C27        -2.5730   -5.5450    0.3230 c3        1 MOL      0.032669
     81 C28        -2.8790   -5.0560   -1.0870 c3        1 MOL     -0.269245
     82 C29        -1.6920   -4.2660   -1.6100 c         1 MOL      0.599188
     83 N8         -0.6880   -4.9230   -2.0650 n         1 MOL     -0.722821
     84 O15        -1.5180   -3.0920   -1.4100 o         1 MOL     -0.382480
     85 H33        -4.6970   -3.5160    0.6080 hn        1 MOL      0.257003
     86 H34        -2.7410   -4.9290    2.3180 h1        1 MOL      0.010770
     87 H35        -3.0010   -6.4670    0.7160 hc        1 MOL     -0.014728
     88 H36        -1.5100   -5.7440    0.4570 hc        1 MOL     -0.014728
     89 H37        -3.7940   -4.4780   -1.1040 hc        1 MOL      0.082279
     90 H38        -3.0600   -5.9030   -1.7410 hc        1 MOL      0.082279
     91 H39        -0.6320   -5.9250   -1.9020 hn        1 MOL      0.324867
     92 H40         0.0770   -4.4020   -2.4740 hn        1 MOL      0.324867
     93 N9         -0.7330   -3.4950    2.0340 n         1 MOL     -0.432906
     94 C30         0.3320   -2.4810    2.1220 c3        1 MOL      0.060277
     95 C31         1.4520   -2.9560    1.2000 c         1 MOL      0.319325
     96 O16         2.2150   -3.9040    1.4930 o         1 MOL     -0.528870
     97 C32         0.8310   -2.0970    3.5460 c3        1 MOL      0.156228
     98 C33         1.8150   -0.9300    3.5930 c3        1 MOL     -0.155984
     99 C34        -0.4430   -1.7250    4.3770 c3        1 MOL     -0.155984
    100 H41        -0.5380   -4.4380    2.3560 hn        1 MOL      0.291188
    101 H42         0.0690   -1.5560    1.6150 h1        1 MOL      0.097370
    102 H43         1.2530   -3.0290    3.9250 hc        1 MOL     -0.012144
    103 H44         1.1770   -0.0530    3.6330 hc        1 MOL      0.025623
    104 H45         2.4100   -0.9890    4.4980 hc        1 MOL      0.025623
    105 H46         2.4820   -0.8530    2.7310 hc        1 MOL      0.025623
    106 H47        -0.1090   -1.1900    5.2650 hc        1 MOL      0.025623
    107 H48        -1.1610   -1.0800    3.8610 hc        1 MOL      0.025623
    108 H49        -1.0570   -2.5800    4.6620 hc        1 MOL      0.025623
    109 N10         1.6280   -2.2260    0.0050 n         1 MOL     -0.138422
    110 C35         2.8330   -2.5350   -0.8010 c3        1 MOL      0.063118
    111 C36         4.0640   -1.9660   -0.1250 c         1 MOL      0.511552
    112 O17         3.9780   -1.0030    0.5990 o         1 MOL     -0.387683
    113 C37         2.7500   -1.9550   -2.2260 c3        1 MOL     -0.233345
    114 C38         1.5810   -2.3250   -3.1550 c         1 MOL      0.684068
    115 N11         0.8190   -1.3550   -3.5580 n         1 MOL     -0.750956
    116 O18         1.2900   -3.4930   -3.2940 o         1 MOL     -0.599994
    117 H50         1.0300   -1.4350   -0.1760 hn        1 MOL      0.022859
    118 H51         3.0450   -3.6060   -0.7550 h1        1 MOL      0.063264
    119 H52         3.6260   -2.2580   -2.7940 hc        1 MOL      0.039846
    120 H53         2.6750   -0.8740   -2.1460 hc        1 MOL      0.039846
    121 H54         1.0710   -0.3780   -3.4840 hn        1 MOL      0.413152
    122 H55        -0.0700   -1.6330   -3.9490 hn        1 MOL      0.413152
    123 N12         5.2580   -2.4580   -0.4600 n         1 MOL     -0.666970
    124 C39         6.5610   -1.9160    0.0590 c3        1 MOL      0.361017
    125 C40         6.7970   -0.4280   -0.0040 c         1 MOL      0.580735
    126 O19         7.2580    0.1840    0.9950 o         1 MOL     -0.548349
    127 C41         7.7390   -2.5910   -0.7280 c3        1 MOL     -0.121900
    128 C42         9.1840   -2.0930   -0.3360 ca        1 MOL      0.057624
    129 C43         9.6310   -2.2150    1.0320 ca        1 MOL     -0.261728
    130 C44        10.0170   -1.3940   -1.2800 ca        1 MOL     -0.261728
    131 C45        10.8210   -1.5930    1.3860 ca        1 MOL     -0.140779
    132 C46        11.1800   -0.7850   -0.8460 ca        1 MOL     -0.140779
    133 C47        11.5970   -0.8820    0.4400 ca        1 MOL      0.299289
    134 O20        12.7030   -0.3380    0.9120 oh        1 MOL     -0.545758
    135 H56         5.3300   -3.2800   -1.0330 hn        1 MOL      0.327056
    136 H57         6.7320   -2.1950    1.1020 h1        1 MOL     -0.008001
    137 H58         7.5640   -2.3810   -1.7830 hc        1 MOL      0.026745
    138 H59         7.6860   -3.6640   -0.5580 hc        1 MOL      0.026745
    139 H60         9.0260   -2.7780    1.7270 ha        1 MOL      0.163547
    140 H61         9.5680   -1.1130   -2.2250 ha        1 MOL      0.163547
    141 H62        11.1590   -1.6570    2.4100 ha        1 MOL      0.108987
    142 H63        11.6980   -0.0900   -1.4810 ha        1 MOL      0.108987
    143 H64        13.2300    0.3430    0.4870 ho        1 MOL      0.399502
    144 N13         6.3390    0.1670   -1.0860 n         1 MOL     -0.510778
    145 C48         6.3840    1.5510   -1.3700 c3        1 MOL      0.082303
    146 C49         5.3910    2.3620   -0.4660 c         1 MOL      0.390836
    147 O21         5.6960    3.4640   -0.0280 o         1 MOL     -0.537962
    148 C50         6.0440    1.8210   -2.8760 c3        1 MOL     -0.071415
    149 C51         4.5370    1.6010   -3.2590 c3        1 MOL     -0.239218
    150 C52         4.3790    1.5440   -4.8120 c         1 MOL      0.741537
    151 O22         4.5250    2.5110   -5.5880 o         1 MOL     -0.735995
    152 O23         4.0560    0.4460   -5.2630 o         1 MOL     -0.735995
    153 H65         6.1600   -0.4630   -1.8550 hn        1 MOL      0.317544
    154 H66         7.4040    1.9140   -1.2450 h1        1 MOL      0.040545
    155 H67         6.5350    1.0530   -3.4690 hc        1 MOL      0.027346
    156 H68         6.4350    2.8000   -3.1590 hc        1 MOL      0.027346
    157 H69         3.8970    2.4120   -2.8890 hc        1 MOL      0.033298
    158 H70         4.2040    0.6810   -2.7770 hc        1 MOL      0.033298
    159 N14         4.2020    1.8340   -0.1840 n         1 MOL     -0.088924
    160 C53         3.2360    2.3990    0.7690 c3        1 MOL     -0.137182
    161 C54         3.8620    2.2990    2.1880 c         1 MOL      0.486925
    162 O24         3.7400    3.2280    3.0020 o         1 MOL     -0.524316
    163 C55         1.9300    1.6080    0.6680 c3        1 MOL      0.171658
    164 C56         1.2910    1.8370   -0.6820 c3        1 MOL     -0.268581
    165 C57        -0.0420    1.1530   -0.6910 c         1 MOL      0.816889
    166 O25        -1.1300    1.7680   -0.6350 o         1 MOL     -0.773978
    167 O26        -0.0420   -0.0540   -0.7920 o         1 MOL     -0.773978
    168 H71         3.9850    0.9270   -0.5920 hn        1 MOL      0.222896
    169 H72         2.9000    3.4160    0.5920 h1        1 MOL      0.094610
    170 H73         1.3030    1.9360    1.5020 hc        1 MOL      0.038951
    171 H74         1.9690    0.5370    0.8370 hc        1 MOL      0.038951
    172 H75         1.9010    1.2850   -1.4060 hc        1 MOL      0.065784
    173 H76         1.2650    2.8790   -0.9900 hc        1 MOL      0.065784
    174 N15         4.4810    1.1200    2.5060 n         1 MOL     -0.190160
    175 C58         5.1290    0.9110    3.8450 c3        1 MOL     -0.080880
    176 H77         5.8240    0.0740    3.7840 h1        1 MOL      0.053090
    177 H78         5.6710    1.8130    4.1320 h1        1 MOL      0.053090
    178 H79         4.3630    0.6950    4.5900 h1        1 MOL      0.053090
    179 H80         4.2490    0.3040    1.9420 hn        1 MOL      0.086366
    180 Ca1        -2.4310   -0.6250   -0.9000 Ca        1 MOL      1.677241
    181 O27        -1.9430   -1.0640   -3.9590 oh        1 MOL     -0.949239
    182 H81        -1.9430   -0.1100   -4.0690 ho        1 MOL      0.449193
    183 H82        -2.8550   -1.2850   -3.7900 ho        1 MOL      0.449193
@<TRIPOS>BOND
     1    1    2 1   
     2    1    4 1   
     3    1    5 1   
     4    1    6 1   
     5    2    3 2   
     6    2    7 1   
     7    7    8 1   
     8    7   15 1   
     9    8    9 1   
    10    8   11 1   
    11    8   16 1   
    12    9   10 2   
    13    9   19 1   
    14   11   12 1   
    15   11   17 1   
    16   11   18 1   
    17   12   13 1   
    18   12   14 1   
    19   19   20 1   
    20   19   27 1   
    21   20   21 1   
    22   20   23 1   
    23   20   28 1   
    24   21   22 2   
    25   21   38 1   
    26   23   24 1   
    27   23   25 1   
    28   23   29 1   
    29   24   26 1   
    30   24   30 1   
    31   24   31 1   
    32   25   32 1   
    33   25   33 1   
    34   25   34 1   
    35   26   35 1   
    36   26   36 1   
    37   26   37 1   
    38   38   39 1   
    39   38   46 1   
    40   39   40 1   
    41   39   42 1   
    42   39   47 1   
    43   40   41 2   
    44   40   50 1   
    45   42   43 1   
    46   42   48 1   
    47   42   49 1   
    48   43   44 1   
    49   43   45 1   
    50   50   51 1   
    51   50   54 1   
    52   51   52 1   
    53   51   55 1   
    54   51   56 1   
    55   52   53 2   
    56   52   57 1   
    57   57   58 1   
    58   57   65 1   
    59   58   59 1   
    60   58   61 1   
    61   58   66 1   
    62   59   60 2   
    63   59   69 1   
    64   61   62 1   
    65   61   67 1   
    66   61   68 1   
    67   62   63 1   
    68   62   64 1   
    69   69   70 1   
    70   69   73 1   
    71   70   71 1   
    72   70   74 1   
    73   70   75 1   
    74   71   72 2   
    75   71   76 1   
    76   76   77 1   
    77   76   85 1   
    78   77   78 1   
    79   77   80 1   
    80   77   86 1   
    81   78   79 2   
    82   78   93 1   
    83   80   81 1   
    84   80   87 1   
    85   80   88 1   
    86   81   82 1   
    87   81   89 1   
    88   81   90 1   
    89   82   83 1   
    90   82   84 2   
    91   83   91 1   
    92   83   92 1   
    93   93   94 1   
    94   93  100 1   
    95   94   95 1   
    96   94   97 1   
    97   94  101 1   
    98   95   96 2   
    99   95  109 1   
   100   97   98 1   
   101   97   99 1   
   102   97  102 1   
   103   98  103 1   
   104   98  104 1   
   105   98  105 1   
   106   99  106 1   
   107   99  107 1   
   108   99  108 1   
   109  109  110 1   
   110  109  117 1   
   111  110  111 1   
   112  110  113 1   
   113  110  118 1   
   114  111  112 2   
   115  111  123 1   
   116  113  114 1   
   117  113  119 1   
   118  113  120 1   
   119  114  115 1   
   120  114  116 2   
   121  115  121 1   
   122  115  122 1   
   123  123  124 1   
   124  123  135 1   
   125  124  125 1   
   126  124  127 1   
   127  124  136 1   
   128  125  126 2   
   129  125  144 1   
   130  127  128 1   
   131  127  137 1   
   132  127  138 1   
   133  128  129 ar  
   134  128  130 ar  
   135  129  131 ar  
   136  129  139 1   
   137  130  132 ar  
   138  130  140 1   
   139  131  133 ar  
   140  131  141 1   
   141  132  133 ar  
   142  132  142 1   
   143  133  134 1   
   144  134  143 1   
   145  144  145 1   
   146  144  153 1   
   147  145  146 1   
   148  145  148 1   
   149  145  154 1   
   150  146  147 2   
   151  146  159 1   
   152  148  149 1   
   153  148  155 1   
   154  148  156 1   
   155  149  150 1   
   156  149  157 1   
   157  149  158 1   
   158  150  151 1   
   159  150  152 1   
   160  159  160 1   
   161  159  168 1   
   162  160  161 1   
   163  160  163 1   
   164  160  169 1   
   165  161  162 2   
   166  161  174 1   
   167  163  164 1   
   168  163  170 1   
   169  163  171 1   
   170  164  165 1   
   171  164  172 1   
   172  164  173 1   
   173  165  166 1   
   174  165  167 1   
   175  174  175 1   
   176  174  179 1   
   177  175  176 1   
   178  175  177 1   
   179  175  178 1   
   180  181  182 1   
   181  181  183 1   
@<TRIPOS>SUBSTRUCTURE
     1 MOL         1 TEMP              0 ****  ****    0 ROOT
