@<TRIPOS>MOLECULE
MOL
  189   185     1     0     0
SMALL
resp


@<TRIPOS>ATOM
      1 C1         -0.5730    2.3160   -5.7630 c3        1 MOL     -0.296822
      2 C2          0.0570    2.3220   -4.3630 c         1 MOL      0.671299
      3 O1         -0.6670    2.6860   -3.4220 o         1 MOL     -0.627178
      4 H1          0.1610    1.9680   -6.4890 hc        1 MOL      0.069117
      5 H2         -1.4360    1.6490   -5.7700 hc        1 MOL      0.069117
      6 H3         -0.8910    3.3250   -6.0230 hc        1 MOL      0.069117
      7 N1          1.2530    1.9110   -4.1780 n         1 MOL     -0.446830
      8 C3          1.8080    1.7780   -2.8450 c3        1 MOL     -0.028252
      9 C4          2.0840    3.2130   -2.2550 c         1 MOL      0.406522
     10 O2          2.7950    3.9450   -2.9300 o         1 MOL     -0.551756
     11 C5          3.0710    0.9610   -3.0130 c3        1 MOL      0.024281
     12 C6          3.5780    0.3340   -1.7040 c         1 MOL      0.666880
     13 O3          3.2040    0.7380   -0.6000 o         1 MOL     -0.726686
     14 O4          4.5590   -0.5030   -1.8270 o         1 MOL     -0.726686
     15 H4          1.8690    1.7720   -4.9620 hn        1 MOL      0.297691
     16 H5          1.0960    1.2460   -2.2120 h1        1 MOL      0.081792
     17 H6          3.9300    1.4010   -3.5280 hc        1 MOL      0.018177
     18 H7          2.8810    0.0510   -3.5850 hc        1 MOL      0.018177
     19 N2          1.4560    3.5430   -1.1160 n         1 MOL     -0.100036
     20 C7          1.4870    4.9200   -0.5080 c3        1 MOL      0.006458
     21 C8          2.4640    5.1250    0.6300 c         1 MOL      0.630332
     22 O5          2.6210    6.2700    1.1180 o         1 MOL     -0.580094
     23 C9          0.0530    5.2570   -0.1060 c3        1 MOL     -0.102404
     24 C10        -0.9000    5.6200   -1.3390 c3        1 MOL      0.049500
     25 C11        -0.4530    6.9640   -1.9380 c3        1 MOL     -0.245153
     26 C12        -1.4730    7.4920   -3.0050 c3        1 MOL      0.051352
     27 N3         -1.5110    6.7690   -4.3220 n4        1 MOL     -0.302506
     28 H8          1.0220    2.8190   -0.5530 hn        1 MOL      0.159573
     29 H9          1.8130    5.6210   -1.2730 h1        1 MOL      0.018733
     30 H10         0.0170    6.0320    0.6610 hc        1 MOL      0.038118
     31 H11        -0.3040    4.3250    0.3300 hc        1 MOL      0.038118
     32 H12        -1.9390    5.5690   -1.0200 hc        1 MOL      0.036679
     33 H13        -0.8940    4.8570   -2.1140 hc        1 MOL      0.036679
     34 H14         0.5180    6.9370   -2.4120 hc        1 MOL      0.116916
     35 H15        -0.4240    7.7230   -1.1510 hc        1 MOL      0.116916
     36 H16        -1.1930    8.4970   -3.3160 hx        1 MOL      0.065984
     37 H17        -2.4810    7.5400   -2.5920 hx        1 MOL      0.065984
     38 H18        -2.0930    7.3170   -4.9310 hn        1 MOL      0.314208
     39 H19        -0.5860    6.6770   -4.7240 hn        1 MOL      0.314208
     40 H20        -1.9380    5.8550   -4.2890 hn        1 MOL      0.314208
     41 N4          3.2020    4.0730    1.0380 n         1 MOL     -0.610238
     42 C13         4.2770    4.1660    1.9990 c3        1 MOL      0.033190
     43 C14         5.3940    3.1600    1.6360 c         1 MOL      0.474275
     44 O6          6.4310    3.0350    2.2780 o         1 MOL     -0.532071
     45 C15         3.7560    3.8860    3.3330 c3        1 MOL     -0.218715
     46 C16         2.8870    2.5920    3.4940 c         1 MOL      0.852125
     47 O7          2.0500    2.6050    4.4530 o         1 MOL     -0.752194
     48 O8          3.0250    1.6570    2.6950 o         1 MOL     -0.752194
     49 H21         2.8040    3.2280    0.6690 hn        1 MOL      0.373222
     50 H22         4.8060    5.1150    2.0410 h1        1 MOL      0.131614
     51 H23         3.3130    4.7410    3.8480 hc        1 MOL      0.061492
     52 H24         4.5410    3.6570    4.0570 hc        1 MOL      0.061492
     53 N5          5.2650    2.4940    0.4440 n         1 MOL     -0.266797
     54 C17         6.4270    2.0270   -0.3340 c3        1 MOL     -0.213379
     55 C18         7.0720    0.7770    0.1970 c         1 MOL      0.550666
     56 O9          8.1760    0.5050   -0.2460 o         1 MOL     -0.610325
     57 H25         4.3750    2.5330   -0.0420 hn        1 MOL      0.179435
     58 H26         7.1480    2.8350   -0.4170 h1        1 MOL      0.130654
     59 H27         6.1850    1.8290   -1.3840 h1        1 MOL      0.130654
     60 N6          6.4000   -0.0080    1.0530 n         1 MOL     -0.196333
     61 C19         7.0280   -1.1850    1.6640 c3        1 MOL     -0.106358
     62 C20         7.0990   -2.4080    0.6530 c         1 MOL      0.397544
     63 O10         7.5600   -3.4690    1.0130 o         1 MOL     -0.508702
     64 C21         6.2010   -1.6040    2.9280 c3        1 MOL     -0.102301
     65 C22         4.7000   -1.4800    2.8310 c         1 MOL      0.689640
     66 O11         4.0650   -1.0810    3.8380 o         1 MOL     -0.662020
     67 O12         4.1300   -1.7070    1.7570 o         1 MOL     -0.662020
     68 H28         5.4260    0.2560    1.1320 hn        1 MOL      0.183901
     69 H29         7.9950   -0.9230    2.0770 h1        1 MOL      0.140970
     70 H30         6.4980   -0.8620    3.6810 hc        1 MOL      0.042131
     71 H31         6.5570   -2.5420    3.3620 hc        1 MOL      0.042131
     72 N7          6.6970   -2.2990   -0.6360 n         1 MOL     -0.150935
     73 C23         6.7240   -3.3560   -1.6480 c3        1 MOL     -0.237541
     74 C24         5.5110   -4.3030   -1.5090 c         1 MOL      0.565190
     75 O13         5.5090   -5.4980   -1.9790 o         1 MOL     -0.601044
     76 H32         6.2390   -1.4110   -0.7780 hn        1 MOL      0.250110
     77 H33         7.6230   -3.9470   -1.5440 h1        1 MOL      0.116118
     78 H34         6.6070   -2.9480   -2.6570 h1        1 MOL      0.116118
     79 N8          4.4140   -3.8490   -0.9680 n         1 MOL     -0.242392
     80 C25         3.1180   -4.5890   -0.6930 c3        1 MOL     -0.381847
     81 C26         1.9740   -3.6000   -0.8160 c         1 MOL      0.780047
     82 O14         1.9250   -2.6210   -0.0360 o         1 MOL     -0.706003
     83 C27         3.1830   -5.2570    0.6560 c3        1 MOL      0.563187
     84 C28         3.9490   -6.5490    0.7520 c3        1 MOL     -0.464898
     85 O15         3.7140   -4.4710    1.7010 oh        1 MOL     -0.636311
     86 H35         4.4110   -2.9200   -0.5900 hn        1 MOL      0.210322
     87 H36         3.0990   -5.3910   -1.4410 h1        1 MOL      0.152486
     88 H37         2.1530   -5.5370    0.8720 h1        1 MOL     -0.062182
     89 H38         3.6280   -3.5270    1.5560 ho        1 MOL      0.412333
     90 H39         3.7800   -6.9330    1.7580 hc        1 MOL      0.120398
     91 H40         3.6590   -7.2460   -0.0400 hc        1 MOL      0.120398
     92 H41         5.0160   -6.3640    0.6750 hc        1 MOL      0.120398
     93 N9          0.9650   -3.9120   -1.6680 n         1 MOL     -0.602814
     94 C29        -0.2640   -3.0730   -1.7820 c3        1 MOL     -0.136091
     95 C30        -1.3680   -3.7610   -0.9740 c         1 MOL      0.740796
     96 O16        -1.5740   -4.9360   -1.1930 o         1 MOL     -0.568531
     97 C31        -0.6740   -2.8840   -3.2890 c3        1 MOL      0.405310
     98 C32         0.4470   -2.4480   -4.3320 c3        1 MOL      0.181492
     99 C33        -1.8230   -1.9050   -3.3680 c3        1 MOL     -0.698568
    100 C34        -0.0350   -2.6080   -5.8040 c3        1 MOL     -0.272413
    101 H42         1.1050   -4.6820   -2.3140 hn        1 MOL      0.324302
    102 H43         0.0120   -2.0910   -1.3860 h1        1 MOL      0.084894
    103 H44        -1.0620   -3.8430   -3.6380 hc        1 MOL     -0.036270
    104 H45         1.2110   -3.2020   -4.1810 hc        1 MOL     -0.051354
    105 H46         0.8250   -1.4310   -4.2050 hc        1 MOL     -0.051354
    106 H47        -1.8860   -1.5130   -4.3890 hc        1 MOL      0.147193
    107 H48        -2.7720   -2.3780   -3.1030 hc        1 MOL      0.147193
    108 H49        -1.6350   -1.1070   -2.6490 hc        1 MOL      0.147193
    109 H50         0.8430   -2.6940   -6.4350 hc        1 MOL      0.063011
    110 H51        -0.7110   -3.4660   -5.7810 hc        1 MOL      0.063011
    111 H52        -0.7280   -1.8580   -6.2130 hc        1 MOL      0.063011
    112 N10        -2.0320   -2.9030   -0.1600 n         1 MOL     -0.454882
    113 C35        -3.2270   -3.2910    0.5910 c3        1 MOL     -0.066184
    114 C36        -4.5550   -2.8860   -0.0670 c         1 MOL      0.492608
    115 O17        -4.5230   -2.0830   -1.0270 o         1 MOL     -0.437552
    116 C37        -3.2070   -2.6930    1.9800 c3        1 MOL      0.233947
    117 C38        -2.1310   -3.3160    2.8920 c3        1 MOL     -0.451349
    118 O18        -3.0520   -1.3300    2.0120 oh        1 MOL     -0.594134
    119 H53        -1.7360   -1.9410   -0.0720 hn        1 MOL      0.320525
    120 H54        -3.2340   -4.3650    0.7670 h1        1 MOL      0.098735
    121 H55        -4.1940   -2.8790    2.4210 h1        1 MOL      0.013978
    122 H56        -2.1000   -1.2160    2.0300 ho        1 MOL      0.411553
    123 H57        -2.2240   -2.8820    3.8900 hc        1 MOL      0.137579
    124 H58        -2.1840   -4.3980    2.9980 hc        1 MOL      0.137579
    125 H59        -1.1420   -3.0950    2.4810 hc        1 MOL      0.137579
    126 N11        -5.7500   -3.4020    0.3520 n         1 MOL     -0.360112
    127 C39        -7.0280   -3.0350   -0.3240 c3        1 MOL     -0.105742
    128 C40        -7.5470   -1.6020   -0.0350 c         1 MOL      0.323491
    129 O19        -8.2040   -0.9880   -0.8490 o         1 MOL     -0.469125
    130 C41        -8.1170   -3.9560    0.3110 c3        1 MOL      0.585970
    131 C42        -9.4090   -4.1450   -0.3470 c3        1 MOL     -0.489171
    132 O20        -7.6020   -5.2870    0.4460 oh        1 MOL     -0.611139
    133 H60        -5.7940   -4.2060    0.9600 hn        1 MOL      0.212803
    134 H61        -6.9420   -3.1460   -1.4040 h1        1 MOL      0.154366
    135 H62        -8.3590   -3.6010    1.3190 h1        1 MOL     -0.064419
    136 H63        -7.5870   -5.4730    1.3830 ho        1 MOL      0.369248
    137 H64       -10.0850   -4.6960    0.3220 hc        1 MOL      0.126580
    138 H65        -9.8520   -3.1570   -0.4690 hc        1 MOL      0.126580
    139 H66        -9.1730   -4.6240   -1.2990 hc        1 MOL      0.126580
    140 N12        -7.0230   -0.9950    1.0230 n         1 MOL     -0.250277
    141 C43        -7.1590    0.4350    1.3720 c3        1 MOL      0.039083
    142 C44        -6.3680    1.3170    0.3520 c         1 MOL      0.280702
    143 O21        -6.8170    2.3140   -0.1650 o         1 MOL     -0.482974
    144 C45        -6.5710    0.5870    2.7580 c3        1 MOL     -0.019395
    145 C46        -6.8220    2.0110    3.3450 c3        1 MOL     -0.313267
    146 C47        -6.4120    2.0710    4.8420 c3        1 MOL      0.236408
    147 C48        -6.5410    3.4890    5.5010 c3        1 MOL     -0.014575
    148 N13        -6.1070    3.3540    6.9570 n4        1 MOL     -0.323026
    149 H67        -6.4660   -1.5870    1.6220 hn        1 MOL      0.133014
    150 H68        -8.2070    0.7470    1.3430 h1        1 MOL      0.115404
    151 H69        -5.4780    0.4870    2.7670 hc        1 MOL      0.040056
    152 H70        -7.1040   -0.1340    3.3880 hc        1 MOL      0.040056
    153 H71        -7.8990    2.1200    3.1640 hc        1 MOL      0.096894
    154 H72        -6.1540    2.7700    2.9490 hc        1 MOL      0.096894
    155 H73        -5.4480    1.6050    5.0040 hc        1 MOL     -0.019751
    156 H74        -7.0870    1.4460    5.4300 hc        1 MOL     -0.019751
    157 H75        -7.5120    3.9670    5.3970 hx        1 MOL      0.097152
    158 H76        -5.7840    4.1640    5.0980 hx        1 MOL      0.097152
    159 H77        -5.1090    3.4680    7.0820 hn        1 MOL      0.304417
    160 H78        -6.5600    4.1240    7.4440 hn        1 MOL      0.304417
    161 H79        -6.4270    2.5840    7.5110 hn        1 MOL      0.304417
    162 N14        -5.1200    0.9160    0.0710 n         1 MOL     -0.067740
    163 C49        -4.2000    1.4670   -0.9300 c3        1 MOL     -0.164076
    164 C50        -4.6780    1.3210   -2.3850 c         1 MOL      0.412312
    165 O22        -4.3930    2.2190   -3.2070 o         1 MOL     -0.561380
    166 C51        -2.8120    0.9180   -0.7600 c3        1 MOL      0.000498
    167 C52        -2.1030    1.5290    0.4400 c3        1 MOL     -0.230596
    168 C53        -0.7190    0.8380    0.5790 c         1 MOL      0.823779
    169 O23         0.3840    1.4600    0.5000 o         1 MOL     -0.780444
    170 O24        -0.5960   -0.3400    0.9840 o         1 MOL     -0.780444
    171 H80        -4.7520    0.1720    0.6440 hn        1 MOL      0.261162
    172 H81        -4.1770    2.5500   -0.7750 h1        1 MOL      0.107201
    173 H82        -2.3070    1.0530   -1.7160 hc        1 MOL      0.071724
    174 H83        -2.9360   -0.1410   -0.5180 hc        1 MOL      0.071724
    175 H84        -2.7000    1.3240    1.3240 hc        1 MOL      0.039910
    176 H85        -1.9860    2.6030    0.3170 hc        1 MOL      0.039910
    177 N15        -5.4200    0.2950   -2.7570 n         1 MOL     -0.048493
    178 C54        -6.1960    0.1130   -3.9840 c3        1 MOL     -0.228775
    179 H86        -5.5370   -0.2270   -4.7830 h1        1 MOL      0.098458
    180 H87        -6.9750   -0.6310   -3.8140 h1        1 MOL      0.098458
    181 H88        -6.6540    1.0600   -4.2700 h1        1 MOL      0.098458
    182 H89        -5.4060   -0.4430   -2.0520 hn        1 MOL      0.139411
    183 Ca1         1.9210   -0.3990    1.5650 Ca        1 MOL      1.806597
    184 O25         0.5980    0.4860    3.8810 oh        1 MOL     -0.875030
    185 H90         1.2070    1.1150    4.2770 ho        1 MOL      0.396571
    186 H91        -0.2300    0.6630    4.3230 ho        1 MOL      0.396571
    187 O26         1.4350   -2.2900    3.5880 oh        1 MOL     -0.875030
    188 H92         2.2250   -2.1840    4.1300 ho        1 MOL      0.396571
    189 H93         0.7300   -2.4580    4.2160 ho        1 MOL      0.396571
@<TRIPOS>BOND
     1    1    2 1   
     2    1    4 1   
     3    1    5 1   
     4    1    6 1   
     5    2    3 2   
     6    2    7 1   
     7    7    8 1   
     8    7   15 1   
     9    8    9 1   
    10    8   11 1   
    11    8   16 1   
    12    9   10 2   
    13    9   19 1   
    14   11   12 1   
    15   11   17 1   
    16   11   18 1   
    17   12   13 1   
    18   12   14 1   
    19   19   20 1   
    20   19   28 1   
    21   20   21 1   
    22   20   23 1   
    23   20   29 1   
    24   21   22 2   
    25   21   41 1   
    26   23   24 1   
    27   23   30 1   
    28   23   31 1   
    29   24   25 1   
    30   24   32 1   
    31   24   33 1   
    32   25   26 1   
    33   25   34 1   
    34   25   35 1   
    35   26   27 1   
    36   26   36 1   
    37   26   37 1   
    38   27   38 1   
    39   27   39 1   
    40   27   40 1   
    41   41   42 1   
    42   41   49 1   
    43   42   43 1   
    44   42   45 1   
    45   42   50 1   
    46   43   44 2   
    47   43   53 1   
    48   45   46 1   
    49   45   51 1   
    50   45   52 1   
    51   46   47 1   
    52   46   48 1   
    53   53   54 1   
    54   53   57 1   
    55   54   55 1   
    56   54   58 1   
    57   54   59 1   
    58   55   56 2   
    59   55   60 1   
    60   60   61 1   
    61   60   68 1   
    62   61   62 1   
    63   61   64 1   
    64   61   69 1   
    65   62   63 2   
    66   62   72 1   
    67   64   65 1   
    68   64   70 1   
    69   64   71 1   
    70   65   66 1   
    71   65   67 1   
    72   72   73 1   
    73   72   76 1   
    74   73   74 1   
    75   73   77 1   
    76   73   78 1   
    77   74   75 2   
    78   74   79 1   
    79   79   80 1   
    80   79   86 1   
    81   80   81 1   
    82   80   83 1   
    83   80   87 1   
    84   81   82 2   
    85   81   93 1   
    86   83   84 1   
    87   83   85 1   
    88   83   88 1   
    89   84   90 1   
    90   84   91 1   
    91   84   92 1   
    92   85   89 1   
    93   93   94 1   
    94   93  101 1   
    95   94   95 1   
    96   94   97 1   
    97   94  102 1   
    98   95   96 2   
    99   95  112 1   
   100   97   98 1   
   101   97   99 1   
   102   97  103 1   
   103   98  100 1   
   104   98  104 1   
   105   98  105 1   
   106   99  106 1   
   107   99  107 1   
   108   99  108 1   
   109  100  109 1   
   110  100  110 1   
   111  100  111 1   
   112  112  113 1   
   113  112  119 1   
   114  113  114 1   
   115  113  116 1   
   116  113  120 1   
   117  114  115 2   
   118  114  126 1   
   119  116  117 1   
   120  116  118 1   
   121  116  121 1   
   122  117  123 1   
   123  117  124 1   
   124  117  125 1   
   125  118  122 1   
   126  126  127 1   
   127  126  133 1   
   128  127  128 1   
   129  127  130 1   
   130  127  134 1   
   131  128  129 2   
   132  128  140 1   
   133  130  131 1   
   134  130  132 1   
   135  130  135 1   
   136  131  137 1   
   137  131  138 1   
   138  131  139 1   
   139  132  136 1   
   140  140  141 1   
   141  140  149 1   
   142  141  142 1   
   143  141  144 1   
   144  141  150 1   
   145  142  143 2   
   146  142  162 1   
   147  144  145 1   
   148  144  151 1   
   149  144  152 1   
   150  145  146 1   
   151  145  153 1   
   152  145  154 1   
   153  146  147 1   
   154  146  155 1   
   155  146  156 1   
   156  147  148 1   
   157  147  157 1   
   158  147  158 1   
   159  148  159 1   
   160  148  160 1   
   161  148  161 1   
   162  162  163 1   
   163  162  171 1   
   164  163  164 1   
   165  163  166 1   
   166  163  172 1   
   167  164  165 2   
   168  164  177 1   
   169  166  167 1   
   170  166  173 1   
   171  166  174 1   
   172  167  168 1   
   173  167  175 1   
   174  167  176 1   
   175  168  169 1   
   176  168  170 1   
   177  177  178 1   
   178  177  182 1   
   179  178  179 1   
   180  178  180 1   
   181  178  181 1   
   182  184  185 1   
   183  184  186 1   
   184  187  188 1   
   185  187  189 1   
@<TRIPOS>SUBSTRUCTURE
     1 MOL         1 TEMP              0 ****  ****    0 ROOT
