@<TRIPOS>MOLECULE
MOL
  175   173     1     0     0
SMALL
resp


@<TRIPOS>ATOM
      1 C1         -0.0220    4.8640    5.2250 c3        1 MOL     -0.409012
      2 C2         -0.4600    4.3040    3.8720 c         1 MOL      0.721052
      3 O1          0.3290    4.0380    2.9280 o         1 MOL     -0.571923
      4 H1         -0.6810    4.4830    6.0050 hc        1 MOL      0.103105
      5 H2          1.0030    4.5560    5.4320 hc        1 MOL      0.103105
      6 H3         -0.0780    5.9520    5.2040 hc        1 MOL      0.103105
      7 N1         -1.7610    4.0320    3.7140 n         1 MOL     -0.652809
      8 C3         -2.2590    3.5030    2.4450 c3        1 MOL      0.154079
      9 C4         -2.2840    4.6560    1.3820 c         1 MOL      0.534747
     10 O2         -2.6730    5.8010    1.6010 o         1 MOL     -0.586435
     11 C5         -3.6750    2.9690    2.5810 c3        1 MOL     -0.363985
     12 C6         -4.2730    2.3440    1.3300 c         1 MOL      0.857297
     13 O3         -5.4710    1.9910    1.4500 o         1 MOL     -0.711576
     14 O4         -3.5950    2.0520    0.3410 o         1 MOL     -0.711576
     15 H4         -2.4300    4.2870    4.4210 hn        1 MOL      0.351257
     16 H5         -1.6250    2.7500    1.9880 h1        1 MOL      0.089365
     17 H6         -4.4070    3.6830    2.9470 hc        1 MOL      0.077319
     18 H7         -3.6830    2.1680    3.3260 hc        1 MOL      0.077319
     19 N2         -1.8380    4.3230    0.1730 n         1 MOL     -0.384096
     20 C7         -1.8660    5.0740   -1.0440 c3        1 MOL      0.326566
     21 C8         -3.0960    4.8080   -1.9650 c         1 MOL      0.503159
     22 O5         -3.3480    5.6710   -2.7710 o         1 MOL     -0.588115
     23 C9         -0.5310    4.8900   -1.7460 c3        1 MOL     -0.371273
     24 H8         -1.5460    3.3730    0.0230 hn        1 MOL      0.254409
     25 H9         -2.0140    6.1200   -0.7720 h1        1 MOL     -0.015429
     26 H10         0.2520    5.2170   -1.0690 hc        1 MOL      0.089782
     27 H11        -0.4280    3.8140   -1.9190 hc        1 MOL      0.089782
     28 H12        -0.5520    5.4550   -2.6800 hc        1 MOL      0.089782
     29 N3         -3.8230    3.6970   -1.9190 n         1 MOL     -0.466452
     30 C10        -4.5500    3.2120   -3.0840 c3        1 MOL      0.095262
     31 C11        -5.7860    2.3800   -2.8180 c         1 MOL      0.395811
     32 O6         -6.5170    2.2640   -3.7550 o         1 MOL     -0.558620
     33 C12        -3.6190    2.4770   -4.0420 c3        1 MOL     -0.115661
     34 C13        -3.1390    1.0500   -3.5900 c         1 MOL      0.690069
     35 O7         -3.3610    0.6320   -2.4110 o         1 MOL     -0.682629
     36 O8         -2.5310    0.4190   -4.4660 o         1 MOL     -0.682629
     37 H13        -3.5610    3.0470   -1.1880 hn        1 MOL      0.207522
     38 H14        -4.9030    4.1050   -3.5870 h1        1 MOL      0.078829
     39 H15        -2.6890    3.0250   -4.1760 hc        1 MOL      0.030063
     40 H16        -4.0540    2.3710   -5.0270 hc        1 MOL      0.030063
     41 N4         -6.0750    2.0020   -1.5850 n         1 MOL     -0.064501
     42 C14        -7.2890    1.2420   -1.2550 c3        1 MOL     -0.477333
     43 C15        -7.1470   -0.3080   -1.6200 c         1 MOL      0.585424
     44 O9         -8.2010   -0.9480   -1.4930 o         1 MOL     -0.607503
     45 H17        -5.4680    2.3440   -0.8560 hn        1 MOL      0.130107
     46 H18        -8.0490    1.6900   -1.9020 h1        1 MOL      0.186498
     47 H19        -7.5000    1.4630   -0.2160 h1        1 MOL      0.186498
     48 N5         -6.0850   -0.8860   -2.1120 n         1 MOL     -0.212370
     49 C16        -5.9330   -2.3180   -2.3460 c3        1 MOL     -0.169927
     50 C17        -6.0120   -3.1750   -1.0830 c         1 MOL      0.439731
     51 O10        -6.0680   -4.4260   -1.2140 o         1 MOL     -0.577905
     52 C18        -4.7210   -2.7280   -3.2430 c3        1 MOL      0.039340
     53 C19        -3.3680   -2.6310   -2.5810 c         1 MOL      0.314754
     54 N6         -2.2730   -3.0460   -3.1920 n         1 MOL     -0.591405
     55 O11        -3.2010   -2.2560   -1.4870 o         1 MOL     -0.330525
     56 H20        -5.3010   -0.2770   -2.3450 hn        1 MOL      0.204213
     57 H21        -6.8060   -2.5020   -2.9710 h1        1 MOL      0.111976
     58 H22        -4.6550   -2.1040   -4.1360 hc        1 MOL      0.039811
     59 H23        -4.8750   -3.6740   -3.7660 hc        1 MOL      0.039811
     60 H24        -2.3780   -3.4330   -4.1250 hn        1 MOL      0.303485
     61 H25        -1.4260   -3.0690   -2.6360 hn        1 MOL      0.303485
     62 N7         -5.9720   -2.6080    0.0510 n         1 MOL     -0.077994
     63 C20        -6.3240   -3.1520    1.3510 c3        1 MOL     -0.248195
     64 C21        -5.0410   -3.6710    2.1470 c         1 MOL      0.469583
     65 O12        -5.1220   -3.9750    3.3450 o         1 MOL     -0.590369
     66 H26        -6.0360   -1.6000    0.0130 hn        1 MOL      0.200837
     67 H27        -7.0140   -3.9940    1.2300 h1        1 MOL      0.117950
     68 H28        -6.7770   -2.3530    1.9420 h1        1 MOL      0.117950
     69 N8         -3.9220   -3.8580    1.4920 n         1 MOL     -0.097266
     70 C22        -2.6010   -4.2470    2.0170 c3        1 MOL     -0.016110
     71 C23        -1.5280   -3.1750    1.8630 c         1 MOL      0.161637
     72 O13        -1.5370   -2.4470    0.8930 o         1 MOL     -0.220781
     73 C24        -2.1610   -5.5060    1.2380 c3        1 MOL      0.398742
     74 C25        -2.9750   -6.7570    1.5190 c3        1 MOL     -0.360002
     75 O14        -2.3150   -5.3400   -0.2040 oh        1 MOL     -0.601128
     76 H29        -3.9920   -3.7260    0.5020 hn        1 MOL      0.119940
     77 H30        -2.8890   -4.6410    2.9950 h1        1 MOL      0.065067
     78 H31        -1.1060   -5.6660    1.4790 h1        1 MOL     -0.007651
     79 H32        -1.9220   -4.4850   -0.3860 ho        1 MOL      0.394886
     80 H33        -2.4860   -7.5600    0.9560 hc        1 MOL      0.087466
     81 H34        -2.8730   -6.9820    2.5810 hc        1 MOL      0.087466
     82 H35        -4.0210   -6.6810    1.2390 hc        1 MOL      0.087466
     83 N9         -0.7110   -3.0030    2.8510 n         1 MOL     -0.485928
     84 C26         0.5550   -2.2730    2.7840 c3        1 MOL      0.056268
     85 C27         1.3780   -2.8880    1.5830 c         1 MOL      0.547425
     86 O15         1.5810   -4.0710    1.5580 o         1 MOL     -0.560187
     87 C28         1.2080   -2.0580    4.1940 c3        1 MOL      0.061736
     88 C29         0.4420   -0.8330    4.8000 c3        1 MOL      0.156297
     89 C30         2.7070   -1.8560    4.0580 c3        1 MOL     -0.170189
     90 C31         0.5410   -0.6330    6.2940 c3        1 MOL     -0.281781
     91 H36        -0.7770   -3.6670    3.6100 hn        1 MOL      0.304253
     92 H37         0.4300   -1.2720    2.3820 h1        1 MOL      0.196165
     93 H38         0.9780   -2.9560    4.7780 hc        1 MOL     -0.007247
     94 H39        -0.6170   -1.0220    4.6180 hc        1 MOL     -0.033553
     95 H40         0.7310   -0.0030    4.1510 hc        1 MOL     -0.033553
     96 H41         3.1950   -2.6970    3.5680 hc        1 MOL      0.034012
     97 H42         2.9960   -1.0270    3.4090 hc        1 MOL      0.034012
     98 H43         3.2200   -1.6950    5.0050 hc        1 MOL      0.034012
     99 H44         0.6120   -1.5670    6.8580 hc        1 MOL      0.061386
    100 H45         1.4700   -0.1650    6.6200 hc        1 MOL      0.061386
    101 H46        -0.3730   -0.1490    6.6350 hc        1 MOL      0.061386
    102 N10         1.8820   -2.0290    0.7120 n         1 MOL     -0.228175
    103 C32         2.7520   -2.1950   -0.4600 c3        1 MOL      0.037010
    104 C33         4.1290   -1.6110   -0.3480 c         1 MOL      0.651611
    105 O16         4.4020   -1.0160    0.6970 o         1 MOL     -0.478126
    106 C34         1.9860   -1.4680   -1.5630 c3        1 MOL     -0.399295
    107 C35         0.5380   -1.9750   -1.7620 c         1 MOL      0.863644
    108 O17        -0.3320   -1.0910   -1.7360 o         1 MOL     -0.734297
    109 O18         0.2220   -3.2160   -1.8840 o         1 MOL     -0.734297
    110 H47         1.5320   -1.0850    0.8030 hn        1 MOL     -0.054166
    111 H48         2.9550   -3.2600   -0.5740 h1        1 MOL      0.076569
    112 H49         2.4500   -1.5470   -2.5480 hc        1 MOL      0.110004
    113 H50         1.9770   -0.4070   -1.3190 hc        1 MOL      0.110004
    114 N11         4.9710   -1.8390   -1.3640 n         1 MOL     -0.830357
    115 C36         6.3890   -1.5670   -1.1240 c3        1 MOL      0.582633
    116 C37         6.7320   -0.0420   -1.1020 c         1 MOL      0.108655
    117 O19         7.4610    0.2800   -0.1570 o         1 MOL     -0.455027
    118 C38         7.1580   -2.4240   -2.1300 c3        1 MOL     -0.207000
    119 C39         8.6710   -2.1930   -2.1880 ca        1 MOL      0.007563
    120 C40         9.4150   -2.3230   -0.9440 ca        1 MOL     -0.079980
    121 C41         9.3000   -1.9490   -3.4220 ca        1 MOL     -0.079980
    122 C42        10.8320   -2.1980   -0.9960 ca        1 MOL     -0.201248
    123 C43        10.6910   -1.9550   -3.4510 ca        1 MOL     -0.201248
    124 C44        11.4970   -2.0050   -2.2180 ca        1 MOL     -0.030984
    125 H51         4.6070   -2.3210   -2.1720 hn        1 MOL      0.364022
    126 H52         6.5890   -1.9230   -0.1190 h1        1 MOL      0.003029
    127 H53         6.7500   -2.1410   -3.1010 hc        1 MOL      0.060787
    128 H54         6.9790   -3.4920   -1.9530 hc        1 MOL      0.060787
    129 H55         8.9120   -2.6300   -0.0390 ha        1 MOL      0.109582
    130 H56         8.6900   -1.9110   -4.3090 ha        1 MOL      0.109582
    131 H57        11.4070   -2.1670   -0.0810 ha        1 MOL      0.128768
    132 H58        11.1330   -1.8690   -4.4250 ha        1 MOL      0.128768
    133 H59        12.5710   -2.0890   -2.3260 ha        1 MOL      0.084613
    134 N12         6.1700    0.8460   -1.9040 n         1 MOL      0.168755
    135 C45         6.4210    2.2580   -1.6930 c3        1 MOL     -0.031645
    136 C46         5.9400    2.8270   -0.2990 c         1 MOL      0.201051
    137 O20         6.5330    3.7800    0.2510 o         1 MOL     -0.456096
    138 C47         5.6510    2.9790   -2.7770 c3        1 MOL      0.013759
    139 C48         5.5750    1.9440   -3.9220 c3        1 MOL     -0.046707
    140 C49         5.5320    0.6110   -3.1990 c3        1 MOL     -0.143519
    141 H60         7.4890    2.4170   -1.8790 h1        1 MOL      0.064856
    142 H61         4.5950    3.0930   -2.5460 hc        1 MOL      0.036886
    143 H62         6.0330    3.9430   -3.1180 hc        1 MOL      0.036886
    144 H63         4.6660    2.1460   -4.4840 hc        1 MOL      0.030658
    145 H64         6.4870    2.0880   -4.5180 hc        1 MOL      0.030658
    146 H65         4.5000    0.3810   -2.9330 h1        1 MOL      0.054640
    147 H66         6.0770   -0.1180   -3.7990 h1        1 MOL      0.054640
    148 N13         4.8880    2.1970    0.2440 n         1 MOL     -0.138778
    149 C50         4.1570    2.5020    1.5190 c3        1 MOL     -0.037150
    150 C51         4.9400    1.9860    2.7220 c         1 MOL      0.378429
    151 O21         5.1480    2.7810    3.6490 o         1 MOL     -0.547019
    152 C52         2.8100    1.8360    1.5150 c3        1 MOL     -0.048397
    153 C53         1.8530    2.2720    0.3850 c3        1 MOL     -0.022301
    154 C54         0.4550    1.5780    0.3260 c         1 MOL      0.639714
    155 O22         0.2050    0.6740    1.1310 o         1 MOL     -0.683295
    156 O23        -0.4030    1.9110   -0.5030 o         1 MOL     -0.683295
    157 H67         4.5010    1.4430   -0.3080 hn        1 MOL      0.215072
    158 H68         4.0920    3.5760    1.7220 h1        1 MOL      0.121863
    159 H69         2.3480    2.0980    2.4680 hc        1 MOL      0.042214
    160 H70         2.8560    0.7550    1.5870 hc        1 MOL      0.042214
    161 H71         2.3650    1.9080   -0.5060 hc        1 MOL      0.010867
    162 H72         1.7610    3.3490    0.2350 hc        1 MOL      0.010867
    163 N14         5.5630    0.7900    2.6370 n         1 MOL      0.028439
    164 C55         6.4200    0.2170    3.6530 c3        1 MOL     -0.174903
    165 H73         7.3900   -0.0250    3.2150 h1        1 MOL      0.067058
    166 H74         6.5570    0.9360    4.4610 h1        1 MOL      0.067058
    167 H75         5.9620   -0.6900    4.0460 h1        1 MOL      0.067058
    168 H76         5.4240    0.3740    1.7300 hn        1 MOL      0.063182
    169 Ca1        -2.1160   -0.0950   -0.2960 Ca        1 MOL      1.607994
    170 O24        -2.0920    0.1690    2.5830 oh        1 MOL     -0.835912
    171 H77        -1.1410    0.2470    2.5910 ho        1 MOL      0.396744
    172 H78        -2.3660    0.4320    3.4600 ho        1 MOL      0.396744
    173 O25        -4.4410   -0.4770    0.9430 oh        1 MOL     -0.835912
    174 H79        -4.3410   -0.7930    1.8420 ho        1 MOL      0.396744
    175 H80        -4.9740    0.3140    1.0240 ho        1 MOL      0.396744
@<TRIPOS>BOND
     1    1    2 1   
     2    1    4 1   
     3    1    5 1   
     4    1    6 1   
     5    2    3 2   
     6    2    7 1   
     7    7    8 1   
     8    7   15 1   
     9    8    9 1   
    10    8   11 1   
    11    8   16 1   
    12    9   10 2   
    13    9   19 1   
    14   11   12 1   
    15   11   17 1   
    16   11   18 1   
    17   12   13 1   
    18   12   14 1   
    19   19   20 1   
    20   19   24 1   
    21   20   21 1   
    22   20   23 1   
    23   20   25 1   
    24   21   22 2   
    25   21   29 1   
    26   23   26 1   
    27   23   27 1   
    28   23   28 1   
    29   29   30 1   
    30   29   37 1   
    31   30   31 1   
    32   30   33 1   
    33   30   38 1   
    34   31   32 2   
    35   31   41 1   
    36   33   34 1   
    37   33   39 1   
    38   33   40 1   
    39   34   35 1   
    40   34   36 1   
    41   41   42 1   
    42   41   45 1   
    43   42   43 1   
    44   42   46 1   
    45   42   47 1   
    46   43   44 2   
    47   43   48 1   
    48   48   49 1   
    49   48   56 1   
    50   49   50 1   
    51   49   52 1   
    52   49   57 1   
    53   50   51 2   
    54   50   62 1   
    55   52   53 1   
    56   52   58 1   
    57   52   59 1   
    58   53   54 1   
    59   53   55 2   
    60   54   60 1   
    61   54   61 1   
    62   62   63 1   
    63   62   66 1   
    64   63   64 1   
    65   63   67 1   
    66   63   68 1   
    67   64   65 2   
    68   64   69 1   
    69   69   70 1   
    70   69   76 1   
    71   70   71 1   
    72   70   73 1   
    73   70   77 1   
    74   71   72 2   
    75   71   83 1   
    76   73   74 1   
    77   73   75 1   
    78   73   78 1   
    79   74   80 1   
    80   74   81 1   
    81   74   82 1   
    82   75   79 1   
    83   83   84 1   
    84   83   91 1   
    85   84   85 1   
    86   84   87 1   
    87   84   92 1   
    88   85   86 2   
    89   85  102 1   
    90   87   88 1   
    91   87   89 1   
    92   87   93 1   
    93   88   90 1   
    94   88   94 1   
    95   88   95 1   
    96   89   96 1   
    97   89   97 1   
    98   89   98 1   
    99   90   99 1   
   100   90  100 1   
   101   90  101 1   
   102  102  103 1   
   103  102  110 1   
   104  103  104 1   
   105  103  106 1   
   106  103  111 1   
   107  104  105 2   
   108  104  114 1   
   109  106  107 1   
   110  106  112 1   
   111  106  113 1   
   112  107  108 1   
   113  107  109 1   
   114  114  115 1   
   115  114  125 1   
   116  115  116 1   
   117  115  118 1   
   118  115  126 1   
   119  116  117 2   
   120  116  134 1   
   121  118  119 1   
   122  118  127 1   
   123  118  128 1   
   124  119  120 ar  
   125  119  121 ar  
   126  120  122 ar  
   127  120  129 1   
   128  121  123 ar  
   129  121  130 1   
   130  122  124 ar  
   131  122  131 1   
   132  123  124 ar  
   133  123  132 1   
   134  124  133 1   
   135  134  135 1   
   136  134  140 1   
   137  135  136 1   
   138  135  138 1   
   139  135  141 1   
   140  136  137 2   
   141  136  148 1   
   142  138  139 1   
   143  138  142 1   
   144  138  143 1   
   145  139  140 1   
   146  139  144 1   
   147  139  145 1   
   148  140  146 1   
   149  140  147 1   
   150  148  149 1   
   151  148  157 1   
   152  149  150 1   
   153  149  152 1   
   154  149  158 1   
   155  150  151 2   
   156  150  163 1   
   157  152  153 1   
   158  152  159 1   
   159  152  160 1   
   160  153  154 1   
   161  153  161 1   
   162  153  162 1   
   163  154  155 1   
   164  154  156 1   
   165  163  164 1   
   166  163  168 1   
   167  164  165 1   
   168  164  166 1   
   169  164  167 1   
   170  170  171 1   
   171  170  172 1   
   172  173  174 1   
   173  173  175 1   
@<TRIPOS>SUBSTRUCTURE
     1 MOL         1 TEMP              0 ****  ****    0 ROOT
