@<TRIPOS>MOLECULE
MOL
  175   173     1     0     0
SMALL
resp


@<TRIPOS>ATOM
      1 C1          0.1870    4.6840    5.1280 c3        1 MOL     -0.277875
      2 C2         -0.4290    4.6100    3.7020 c         1 MOL      0.693498
      3 O1          0.3200    4.6680    2.6990 o         1 MOL     -0.567527
      4 H1         -0.3290    3.9800    5.7820 hc        1 MOL      0.063675
      5 H2          1.2450    4.4280    5.0800 hc        1 MOL      0.063675
      6 H3          0.0740    5.6940    5.5210 hc        1 MOL      0.063675
      7 N1         -1.7270    4.3130    3.6080 n         1 MOL     -0.680221
      8 C3         -2.3360    3.7720    2.3860 c3        1 MOL      0.226253
      9 C4         -2.5410    4.8650    1.3250 c         1 MOL      0.696098
     10 O2         -2.7070    6.0250    1.6700 o         1 MOL     -0.585319
     11 C5         -3.6510    3.0500    2.7480 c3        1 MOL     -0.453995
     12 C6         -4.3140    2.4310    1.5230 c         1 MOL      0.733783
     13 O3         -5.5230    2.7770    1.3370 o         1 MOL     -0.634263
     14 O4         -3.5970    1.7700    0.7150 o         1 MOL     -0.634263
     15 H4         -2.2040    4.1060    4.4870 hn        1 MOL      0.333725
     16 H5         -1.6400    3.0370    1.9840 h1        1 MOL      0.098074
     17 H6         -4.3830    3.8000    3.0570 hc        1 MOL      0.090789
     18 H7         -3.3840    2.2830    3.4810 hc        1 MOL      0.090789
     19 N2         -2.6370    4.4920    0.0570 n         1 MOL     -0.747212
     20 C7         -3.0740    5.4450   -0.9900 c3        1 MOL      0.501513
     21 C8         -4.2240    4.7580   -1.8360 c         1 MOL      0.353971
     22 O5         -4.7930    5.5390   -2.6300 o         1 MOL     -0.579702
     23 C9         -1.8860    5.9460   -1.7520 c3        1 MOL     -0.293366
     24 H8         -2.3470    3.5680   -0.2440 hn        1 MOL      0.378476
     25 H9         -3.4960    6.3350   -0.5240 h1        1 MOL     -0.015760
     26 H10        -1.3870    5.1230   -2.2770 hc        1 MOL      0.063191
     27 H11        -2.2560    6.6040   -2.5320 hc        1 MOL      0.063191
     28 H12        -1.1930    6.4450   -1.0760 hc        1 MOL      0.063191
     29 N3         -4.5510    3.4310   -1.8160 n         1 MOL     -0.289504
     30 C10        -5.4370    2.8520   -2.8250 c3        1 MOL      0.402103
     31 C11        -6.6390    2.0730   -2.2810 c         1 MOL      0.176422
     32 O6         -7.6400    1.9020   -2.9760 o         1 MOL     -0.527190
     33 C12        -4.6590    1.8370   -3.6290 c3        1 MOL     -0.514135
     34 C13        -3.6030    1.1030   -2.8650 c         1 MOL      0.798565
     35 O7         -3.9300    0.4510   -1.8590 o         1 MOL     -0.708701
     36 O8         -2.3970    1.1540   -3.1860 o         1 MOL     -0.708701
     37 H13        -4.0250    2.8130   -1.2200 hn        1 MOL      0.186130
     38 H14        -5.8940    3.6210   -3.4450 h1        1 MOL      0.032721
     39 H15        -4.1480    2.3760   -4.4350 hc        1 MOL      0.114252
     40 H16        -5.3700    1.1010   -3.9930 hc        1 MOL      0.114252
     41 N4         -6.5680    1.5110   -1.0280 n         1 MOL      0.073705
     42 C14        -7.5650    0.5640   -0.5370 c3        1 MOL     -0.099128
     43 C15        -7.3010   -0.9710   -0.9970 c         1 MOL      0.510566
     44 O9         -8.2710   -1.7030   -0.8190 o         1 MOL     -0.629660
     45 H17        -5.9160    1.8260   -0.3320 hn        1 MOL      0.001101
     46 H18        -8.5780    0.8360   -0.8350 h1        1 MOL      0.060132
     47 H19        -7.5110    0.5390    0.5460 h1        1 MOL      0.060132
     48 N5         -6.1960   -1.3530   -1.5670 n         1 MOL     -0.119586
     49 C16        -5.9060   -2.7810   -2.0610 c3        1 MOL     -0.078621
     50 C17        -5.7020   -3.8450   -0.9400 c         1 MOL      0.494356
     51 O10        -5.4990   -5.0100   -1.2140 o         1 MOL     -0.520702
     52 C18        -4.7710   -2.6090   -2.9740 c3        1 MOL     -0.043702
     53 C19        -3.4230   -2.3740   -2.3400 c         1 MOL      0.467394
     54 N6         -2.4880   -2.1280   -3.1950 n         1 MOL     -0.478443
     55 O11        -3.2020   -2.2710   -1.1340 o         1 MOL     -0.554653
     56 H20        -5.4440   -0.6860   -1.7180 hn        1 MOL      0.056682
     57 H21        -6.7850   -3.1230   -2.5990 h1        1 MOL      0.103426
     58 H22        -5.0630   -1.8130   -3.6730 hc        1 MOL      0.041899
     59 H23        -4.6870   -3.4820   -3.6120 hc        1 MOL      0.041899
     60 H24        -2.8020   -2.1420   -4.1610 hn        1 MOL      0.281003
     61 H25        -1.5440   -1.8910   -2.9250 hn        1 MOL      0.281003
     62 N7         -5.7980   -3.5350    0.3830 n         1 MOL     -0.292262
     63 C20        -5.6600   -4.5280    1.4700 c3        1 MOL     -0.201734
     64 C21        -4.2060   -4.9440    1.8570 c         1 MOL      0.552965
     65 O12        -4.0640   -5.7430    2.7910 o         1 MOL     -0.564791
     66 H26        -6.0000   -2.5620    0.5600 hn        1 MOL      0.226328
     67 H27        -6.2640   -5.4270    1.4260 h1        1 MOL      0.108179
     68 H28        -5.9900   -4.0200    2.3760 h1        1 MOL      0.108179
     69 N8         -3.2210   -4.2880    1.2010 n         1 MOL     -0.331126
     70 C22        -1.8450   -4.4750    1.5710 c3        1 MOL     -0.057967
     71 C23        -0.9790   -3.2280    1.8400 c         1 MOL      0.415026
     72 O13        -1.2280   -2.1290    1.2770 o         1 MOL     -0.486646
     73 C24        -1.1360   -5.2900    0.4510 c3        1 MOL      0.464104
     74 C25        -1.8640   -6.6570    0.3140 c3        1 MOL     -0.385344
     75 O14        -1.1500   -4.6920   -0.8090 oh        1 MOL     -0.584063
     76 H29        -3.4400   -3.6680    0.4340 hn        1 MOL      0.293528
     77 H30        -1.8410   -5.1850    2.3980 h1        1 MOL      0.049078
     78 H31        -0.1000   -5.4300    0.7680 h1        1 MOL     -0.040752
     79 H32        -1.2510   -3.7420   -0.7590 ho        1 MOL      0.304700
     80 H33        -2.6180   -6.7200    1.0940 hc        1 MOL      0.092705
     81 H34        -2.4970   -6.7750   -0.5730 hc        1 MOL      0.092705
     82 H35        -1.1920   -7.5080    0.3860 hc        1 MOL      0.092705
     83 N9          0.0130   -3.3450    2.6980 n         1 MOL     -0.376757
     84 C26         1.1520   -2.3970    2.6970 c3        1 MOL     -0.016418
     85 C27         1.9270   -2.7750    1.4280 c         1 MOL      0.438014
     86 O15         2.5770   -3.8130    1.3820 o         1 MOL     -0.580527
     87 C28         2.1180   -2.3870    3.8940 c3        1 MOL      0.204834
     88 C29         1.3220   -1.8500    5.1140 c3        1 MOL      0.100194
     89 C30         3.2860   -1.4040    3.7890 c3        1 MOL     -0.299952
     90 C31         1.9410   -2.2080    6.4700 c3        1 MOL     -0.305703
     91 H36         0.2070   -4.2470    3.0990 hn        1 MOL      0.263485
     92 H37         0.6870   -1.4260    2.5010 h1        1 MOL      0.080172
     93 H38         2.4600   -3.3980    4.0970 hc        1 MOL      0.000971
     94 H39         0.3370   -2.3240    5.1110 hc        1 MOL     -0.023741
     95 H40         1.0960   -0.7870    5.0140 hc        1 MOL     -0.023741
     96 H41         2.9610   -0.4350    3.4100 hc        1 MOL      0.057094
     97 H42         3.8500   -1.2650    4.7150 hc        1 MOL      0.057094
     98 H43         3.9410   -1.7250    2.9760 hc        1 MOL      0.057094
     99 H44         2.9040   -1.7190    6.6460 hc        1 MOL      0.069605
    100 H45         1.3670   -1.7630    7.2880 hc        1 MOL      0.069605
    101 H46         2.1770   -3.2440    6.7140 hc        1 MOL      0.069605
    102 N10         1.8870   -1.8900    0.4170 n         1 MOL     -0.041720
    103 C32         2.6470   -1.9890   -0.8200 c3        1 MOL     -0.098014
    104 C33         4.0900   -1.4500   -0.5570 c         1 MOL      0.661601
    105 O16         4.3090   -0.5100    0.2600 o         1 MOL     -0.555910
    106 C34         2.0030   -1.2780   -1.9410 c3        1 MOL     -0.128635
    107 C35         0.5730   -1.7500   -2.2550 c         1 MOL      0.697212
    108 O17         0.3850   -2.2860   -3.3450 o         1 MOL     -0.646072
    109 O18        -0.3760   -1.4150   -1.5070 o         1 MOL     -0.646072
    110 H47         1.1840   -1.1820    0.5280 hn        1 MOL      0.079797
    111 H48         2.7720   -3.0360   -1.0910 h1        1 MOL      0.066830
    112 H49         2.4780   -1.4650   -2.9040 hc        1 MOL      0.037771
    113 H50         1.9670   -0.2000   -1.7650 hc        1 MOL      0.037771
    114 N11         5.0360   -1.9130   -1.3090 n         1 MOL     -0.667946
    115 C36         6.4410   -1.4550   -1.2580 c3        1 MOL      0.313315
    116 C37         6.6130    0.1060   -1.3110 c         1 MOL      0.357451
    117 O19         7.5480    0.5770   -0.6430 o         1 MOL     -0.486053
    118 C38         7.1750   -2.3500   -2.2520 c3        1 MOL     -0.194172
    119 C39         8.6350   -2.0030   -2.3120 ca        1 MOL      0.052396
    120 C40         9.0310   -0.8920   -3.0720 ca        1 MOL     -0.156173
    121 C41         9.5270   -2.6380   -1.4470 ca        1 MOL     -0.156173
    122 C42        10.3180   -0.3360   -2.9590 ca        1 MOL     -0.161446
    123 C43        10.8790   -2.2070   -1.4700 ca        1 MOL     -0.161446
    124 C44        11.2620   -1.0360   -2.1560 ca        1 MOL     -0.027056
    125 H51         4.8440   -2.5550   -2.0630 hn        1 MOL      0.319479
    126 H52         6.8150   -1.6900   -0.2610 h1        1 MOL      0.060732
    127 H53         6.7760   -2.0990   -3.2330 hc        1 MOL      0.082009
    128 H54         7.0180   -3.4320   -2.1220 hc        1 MOL      0.082009
    129 H55         8.2630   -0.2880   -3.5230 ha        1 MOL      0.119180
    130 H56         9.2090   -3.5040   -0.8850 ha        1 MOL      0.119180
    131 H57        10.5830    0.5690   -3.4800 ha        1 MOL      0.125463
    132 H58        11.6470   -2.5520   -0.8050 ha        1 MOL      0.125463
    133 H59        12.3040   -0.7780   -2.0920 ha        1 MOL      0.074408
    134 N12         5.9160    0.9560   -2.1010 n         1 MOL      0.009589
    135 C45         5.9560    2.4100   -1.9130 c3        1 MOL      0.039953
    136 C46         5.5620    2.9220   -0.5250 c         1 MOL      0.257849
    137 O20         6.2480    3.7800    0.0080 o         1 MOL     -0.479220
    138 C47         5.0970    3.0310   -2.9740 c3        1 MOL     -0.029562
    139 C48         5.0040    1.9310   -4.0190 c3        1 MOL      0.078832
    140 C49         5.0740    0.6110   -3.2190 c3        1 MOL     -0.230752
    141 H60         6.9890    2.7110   -2.1110 h1        1 MOL      0.048350
    142 H61         4.0590    3.0550   -2.6450 hc        1 MOL      0.027477
    143 H62         5.4710    3.9430   -3.4360 hc        1 MOL      0.027477
    144 H63         4.0880    1.9880   -4.6120 hc        1 MOL      0.005118
    145 H64         5.8110    2.0090   -4.7420 hc        1 MOL      0.005118
    146 H65         4.0840    0.4670   -2.7920 h1        1 MOL      0.069424
    147 H66         5.4700   -0.2120   -3.8130 h1        1 MOL      0.069424
    148 N13         4.5440    2.3110    0.0830 n         1 MOL     -0.103409
    149 C50         4.0160    2.6360    1.3780 c3        1 MOL     -0.189004
    150 C51         4.9040    2.1660    2.4660 c         1 MOL      0.461953
    151 O21         5.0490    2.8230    3.4950 o         1 MOL     -0.563858
    152 C52         2.5990    2.0620    1.5610 c3        1 MOL      0.014338
    153 C53         1.6660    2.4330    0.3810 c3        1 MOL     -0.070976
    154 C54         0.3370    1.6690    0.3980 c         1 MOL      0.631509
    155 O22        -0.7100    2.1530   -0.1740 o         1 MOL     -0.751792
    156 O23         0.2070    0.5740    0.9700 o         1 MOL     -0.751792
    157 H67         4.0780    1.5410   -0.3700 hn        1 MOL      0.261943
    158 H68         3.8950    3.7020    1.5860 h1        1 MOL      0.135830
    159 H69         2.1620    2.4700    2.4720 hc        1 MOL      0.044098
    160 H70         2.6650    0.9760    1.6180 hc        1 MOL      0.044098
    161 H71         2.2410    2.2400   -0.5210 hc        1 MOL      0.041286
    162 H72         1.4980    3.5170    0.3440 hc        1 MOL      0.041286
    163 N14         5.8040    1.1600    2.2430 n         1 MOL      0.011190
    164 C55         6.8900    0.8410    3.1860 c3        1 MOL     -0.208419
    165 H73         7.8410    1.1720    2.7690 h1        1 MOL      0.074742
    166 H74         6.7110    1.3520    4.1320 h1        1 MOL      0.074742
    167 H75         6.9210   -0.2350    3.3540 h1        1 MOL      0.074742
    168 H76         5.8360    0.7770    1.3090 hn        1 MOL      0.055717
    169 Ca1        -2.0910   -0.0610   -0.0960 Ca        1 MOL      1.708022
    170 O24        -4.1660   -0.9010    1.8010 oh        1 MOL     -0.824688
    171 H77        -5.0550   -1.1640    2.0520 ho        1 MOL      0.399837
    172 H78        -3.7780   -0.5740    2.6160 ho        1 MOL      0.399837
    173 O25        -1.7420    0.3280    2.7790 oh        1 MOL     -0.824688
    174 H79        -1.5840    0.5270    3.6970 ho        1 MOL      0.399837
    175 H80        -0.8990    0.5150    2.3460 ho        1 MOL      0.399837
@<TRIPOS>BOND
     1    1    2 1   
     2    1    4 1   
     3    1    5 1   
     4    1    6 1   
     5    2    3 2   
     6    2    7 1   
     7    7    8 1   
     8    7   15 1   
     9    8    9 1   
    10    8   11 1   
    11    8   16 1   
    12    9   10 2   
    13    9   19 1   
    14   11   12 1   
    15   11   17 1   
    16   11   18 1   
    17   12   13 1   
    18   12   14 1   
    19   19   20 1   
    20   19   24 1   
    21   20   21 1   
    22   20   23 1   
    23   20   25 1   
    24   21   22 2   
    25   21   29 1   
    26   23   26 1   
    27   23   27 1   
    28   23   28 1   
    29   29   30 1   
    30   29   37 1   
    31   30   31 1   
    32   30   33 1   
    33   30   38 1   
    34   31   32 2   
    35   31   41 1   
    36   33   34 1   
    37   33   39 1   
    38   33   40 1   
    39   34   35 1   
    40   34   36 1   
    41   41   42 1   
    42   41   45 1   
    43   42   43 1   
    44   42   46 1   
    45   42   47 1   
    46   43   44 2   
    47   43   48 1   
    48   48   49 1   
    49   48   56 1   
    50   49   50 1   
    51   49   52 1   
    52   49   57 1   
    53   50   51 2   
    54   50   62 1   
    55   52   53 1   
    56   52   58 1   
    57   52   59 1   
    58   53   54 1   
    59   53   55 2   
    60   54   60 1   
    61   54   61 1   
    62   62   63 1   
    63   62   66 1   
    64   63   64 1   
    65   63   67 1   
    66   63   68 1   
    67   64   65 2   
    68   64   69 1   
    69   69   70 1   
    70   69   76 1   
    71   70   71 1   
    72   70   73 1   
    73   70   77 1   
    74   71   72 2   
    75   71   83 1   
    76   73   74 1   
    77   73   75 1   
    78   73   78 1   
    79   74   80 1   
    80   74   81 1   
    81   74   82 1   
    82   75   79 1   
    83   83   84 1   
    84   83   91 1   
    85   84   85 1   
    86   84   87 1   
    87   84   92 1   
    88   85   86 2   
    89   85  102 1   
    90   87   88 1   
    91   87   89 1   
    92   87   93 1   
    93   88   90 1   
    94   88   94 1   
    95   88   95 1   
    96   89   96 1   
    97   89   97 1   
    98   89   98 1   
    99   90   99 1   
   100   90  100 1   
   101   90  101 1   
   102  102  103 1   
   103  102  110 1   
   104  103  104 1   
   105  103  106 1   
   106  103  111 1   
   107  104  105 2   
   108  104  114 1   
   109  106  107 1   
   110  106  112 1   
   111  106  113 1   
   112  107  108 1   
   113  107  109 1   
   114  114  115 1   
   115  114  125 1   
   116  115  116 1   
   117  115  118 1   
   118  115  126 1   
   119  116  117 2   
   120  116  134 1   
   121  118  119 1   
   122  118  127 1   
   123  118  128 1   
   124  119  120 ar  
   125  119  121 ar  
   126  120  122 ar  
   127  120  129 1   
   128  121  123 ar  
   129  121  130 1   
   130  122  124 ar  
   131  122  131 1   
   132  123  124 ar  
   133  123  132 1   
   134  124  133 1   
   135  134  135 1   
   136  134  140 1   
   137  135  136 1   
   138  135  138 1   
   139  135  141 1   
   140  136  137 2   
   141  136  148 1   
   142  138  139 1   
   143  138  142 1   
   144  138  143 1   
   145  139  140 1   
   146  139  144 1   
   147  139  145 1   
   148  140  146 1   
   149  140  147 1   
   150  148  149 1   
   151  148  157 1   
   152  149  150 1   
   153  149  152 1   
   154  149  158 1   
   155  150  151 2   
   156  150  163 1   
   157  152  153 1   
   158  152  159 1   
   159  152  160 1   
   160  153  154 1   
   161  153  161 1   
   162  153  162 1   
   163  154  155 1   
   164  154  156 1   
   165  163  164 1   
   166  163  168 1   
   167  164  165 1   
   168  164  166 1   
   169  164  167 1   
   170  170  171 1   
   171  170  172 1   
   172  173  174 1   
   173  173  175 1   
@<TRIPOS>SUBSTRUCTURE
     1 MOL         1 TEMP              0 ****  ****    0 ROOT
