@<TRIPOS>MOLECULE
MOL
  179   176     1     0     0
SMALL
resp


@<TRIPOS>ATOM
      1 C1          1.7200    4.3560    3.9050 c3        1 MOL     -0.437049
      2 C2          0.9090    3.6120    2.7930 c         1 MOL      0.695312
      3 O1          1.4710    3.4320    1.7520 o         1 MOL     -0.559744
      4 H1          2.3910    3.6520    4.3970 hc        1 MOL      0.109983
      5 H2          2.3030    5.1600    3.4540 hc        1 MOL      0.109983
      6 H3          1.0310    4.7740    4.6390 hc        1 MOL      0.109983
      7 N1         -0.3780    3.2440    3.0120 n         1 MOL     -0.726091
      8 C3         -1.2810    2.6130    1.9670 c3        1 MOL      0.087910
      9 C4         -2.1330    3.7840    1.3300 c         1 MOL      0.591103
     10 O2         -3.2420    4.0820    1.7800 o         1 MOL     -0.525239
     11 C5         -2.1790    1.5700    2.7080 c3        1 MOL     -0.006285
     12 C6         -3.0830    0.7990    1.7380 c         1 MOL      0.477010
     13 O3         -4.2280    0.4560    2.0420 o         1 MOL     -0.634510
     14 O4         -2.5800    0.5130    0.6320 o         1 MOL     -0.634510
     15 H4         -0.7750    3.4020    3.9330 hn        1 MOL      0.368933
     16 H5         -0.6980    2.0750    1.2250 h1        1 MOL     -0.003271
     17 H6         -2.7620    2.0240    3.5140 hc        1 MOL      0.029257
     18 H7         -1.4540    0.9680    3.2410 hc        1 MOL      0.029257
     19 N2         -1.5970    4.4900    0.3420 n         1 MOL     -0.449807
     20 C7         -2.2390    5.6140   -0.2950 c3        1 MOL     -0.015502
     21 C8         -3.3770    5.3100   -1.2560 c         1 MOL      0.522459
     22 O5         -4.2640    6.1180   -1.4240 o         1 MOL     -0.561121
     23 C9         -1.1200    6.4740   -0.8900 c3        1 MOL     -0.149757
     24 C10        -0.1300    7.0710    0.1700 c3        1 MOL      0.066389
     25 C11         0.8140    7.9950   -0.5120 c3        1 MOL     -0.020488
     26 C12         1.7430    8.7490    0.4030 c3        1 MOL     -0.163953
     27 N3          2.8570    7.9580    0.9280 n4        1 MOL     -0.268667
     28 H8         -0.6640    4.2500    0.0350 hn        1 MOL      0.393567
     29 H9         -2.6970    6.1380    0.5410 h1        1 MOL      0.093017
     30 H10        -1.6130    7.2850   -1.4340 hc        1 MOL      0.061574
     31 H11        -0.5510    5.7790   -1.5010 hc        1 MOL      0.061574
     32 H12         0.4570    6.2920    0.6540 hc        1 MOL     -0.001377
     33 H13        -0.6070    7.6980    0.9260 hc        1 MOL     -0.001377
     34 H14         0.1460    8.7060   -0.9930 hc        1 MOL      0.059522
     35 H15         1.2840    7.5790   -1.4010 hc        1 MOL      0.059522
     36 H16         1.0960    9.0610    1.2240 hx        1 MOL      0.131914
     37 H17         2.1230    9.5910   -0.1760 hx        1 MOL      0.131914
     38 H18         3.2480    7.3110    0.2630 hn        1 MOL      0.320509
     39 H19         3.6570    8.5000    1.2430 hn        1 MOL      0.320509
     40 H20         2.4480    7.5020    1.7260 hn        1 MOL      0.320509
     41 N4         -3.3940    4.1270   -1.8030 n         1 MOL     -0.255407
     42 C13        -4.5410    3.6580   -2.5560 c3        1 MOL     -0.134444
     43 C14        -5.6930    3.0850   -1.6800 c         1 MOL      0.445529
     44 O6         -6.8210    2.9890   -2.1480 o         1 MOL     -0.531061
     45 C15        -3.9790    2.6070   -3.5810 c3        1 MOL     -0.183017
     46 C16        -3.2060    1.5040   -2.9310 c         1 MOL      0.801770
     47 O7         -2.1030    1.7030   -2.3760 o         1 MOL     -0.748114
     48 O8         -3.5800    0.3110   -3.0410 o         1 MOL     -0.748114
     49 H21        -2.7430    3.4550   -1.4210 hn        1 MOL      0.145464
     50 H22        -4.8340    4.4990   -3.1860 h1        1 MOL      0.147927
     51 H23        -3.4240    3.1000   -4.3720 hc        1 MOL      0.066573
     52 H24        -4.7960    2.1240   -4.1150 hc        1 MOL      0.066573
     53 N5         -5.4350    2.9040   -0.4170 n         1 MOL     -0.003518
     54 C17        -6.4360    2.4450    0.5020 c3        1 MOL     -0.264036
     55 C18        -6.9120    1.0280    0.2950 c         1 MOL      0.554567
     56 O9         -8.0120    0.6830    0.6810 o         1 MOL     -0.580670
     57 H25        -4.6000    3.2440    0.0310 hn        1 MOL      0.146543
     58 H26        -7.2160    3.1990    0.4010 h1        1 MOL      0.122105
     59 H27        -5.9980    2.5120    1.4930 h1        1 MOL      0.122105
     60 N6         -6.2050    0.1570   -0.4070 n         1 MOL     -0.092204
     61 C19        -6.6390   -1.1780   -0.7040 c3        1 MOL     -0.064273
     62 C20        -6.4620   -2.1930    0.4170 c         1 MOL      0.509378
     63 O10        -7.0090   -3.2620    0.3250 o         1 MOL     -0.557362
     64 C21        -5.8280   -1.6450   -1.9100 c3        1 MOL     -0.231522
     65 C22        -4.4270   -2.3140   -1.7360 c         1 MOL      0.651513
     66 N7         -3.9870   -3.1960   -2.6160 n         1 MOL     -0.783559
     67 O11        -3.6840   -2.0070   -0.8090 o         1 MOL     -0.524232
     68 H28        -5.2620    0.4440   -0.6450 hn        1 MOL      0.013999
     69 H29        -7.6930   -1.1400   -0.9290 h1        1 MOL      0.125459
     70 H30        -5.7440   -0.7890   -2.5800 hc        1 MOL      0.079015
     71 H31        -6.4270   -2.4540   -2.3530 hc        1 MOL      0.079015
     72 H32        -4.5770   -3.5850   -3.3420 hn        1 MOL      0.366935
     73 H33        -3.0480   -3.5410   -2.5110 hn        1 MOL      0.366935
     74 N8         -5.7600   -1.8230    1.5120 n         1 MOL     -0.301599
     75 C23        -5.6260   -2.6250    2.7060 c3        1 MOL     -0.007208
     76 C24        -4.1920   -3.1100    3.0710 c         1 MOL      0.478414
     77 O12        -4.0100   -3.6750    4.1760 o         1 MOL     -0.598447
     78 H34        -5.1940   -0.9880    1.4420 hn        1 MOL      0.245333
     79 H35        -6.2790   -3.4930    2.6480 h1        1 MOL      0.074857
     80 H36        -6.0330   -2.1510    3.6080 h1        1 MOL      0.074857
     81 N9         -3.1630   -3.0400    2.2560 n         1 MOL     -0.231436
     82 C25        -1.8630   -3.6330    2.5050 c3        1 MOL     -0.099088
     83 C26        -0.7400   -2.9120    1.7470 c         1 MOL      0.495156
     84 O13        -1.0930   -2.4900    0.6610 o         1 MOL     -0.542266
     85 C27        -1.8440   -5.1240    2.2290 c3        1 MOL     -0.116358
     86 C28        -2.3460   -5.5390    0.8330 ca        1 MOL     -0.002358
     87 C29        -3.7110   -5.6120    0.5660 ca        1 MOL     -0.079312
     88 C30        -1.4150   -5.8820   -0.1880 ca        1 MOL     -0.079312
     89 C31        -4.2100   -6.0240   -0.7010 ca        1 MOL     -0.373105
     90 C32        -1.8570   -6.3620   -1.4360 ca        1 MOL     -0.373105
     91 C33        -3.2610   -6.3620   -1.7440 ca        1 MOL      0.457414
     92 O14        -3.8330   -6.7170   -2.9420 oh        1 MOL     -0.568118
     93 H37        -3.4560   -2.7990    1.3180 hn        1 MOL      0.257267
     94 H38        -1.6420   -3.4920    3.5730 h1        1 MOL      0.121570
     95 H39        -2.5300   -5.6780    2.8770 hc        1 MOL      0.074618
     96 H40        -0.8640   -5.5780    2.3760 hc        1 MOL      0.074618
     97 H41        -4.4790   -5.4130    1.2900 ha        1 MOL      0.128642
     98 H42        -0.3830   -6.0320    0.0910 ha        1 MOL      0.128642
     99 H43        -5.2800   -6.0790   -0.8120 ha        1 MOL      0.177388
    100 H44        -1.1330   -6.6740   -2.1710 ha        1 MOL      0.177388
    101 H45        -4.7890   -6.7490   -2.9000 ho        1 MOL      0.407562
    102 N10         0.4990   -2.7990    2.2500 n         1 MOL     -0.318779
    103 C34         1.6740   -2.2190    1.5180 c3        1 MOL      0.132187
    104 C35         2.6940   -3.3340    1.2110 c         1 MOL      0.390574
    105 O15         2.6440   -4.4090    1.7500 o         1 MOL     -0.547781
    106 C36         2.4240   -1.1250    2.3760 c3        1 MOL     -0.007378
    107 C37         2.6450   -1.6800    3.8770 c3        1 MOL      0.085805
    108 C38         1.5560    0.1690    2.4000 c3        1 MOL     -0.372206
    109 C39         3.3550   -0.6270    4.6800 c3        1 MOL     -0.156866
    110 H46         0.6010   -3.0640    3.2240 hn        1 MOL      0.223121
    111 H47         1.4930   -1.6440    0.6110 h1        1 MOL     -0.075433
    112 H48         3.3370   -0.8300    1.8760 hc        1 MOL     -0.086273
    113 H49         3.3070   -2.5510    3.9310 hc        1 MOL      0.016637
    114 H50         1.7060   -1.9020    4.3870 hc        1 MOL      0.016637
    115 H51         1.4180    0.5310    1.3830 hc        1 MOL      0.143352
    116 H52         0.5470    0.0400    2.7890 hc        1 MOL      0.143352
    117 H53         2.0280    1.0080    2.9180 hc        1 MOL      0.143352
    118 H54         4.0550   -0.1120    4.0240 hc        1 MOL      0.035019
    119 H55         2.7260    0.1330    5.1440 hc        1 MOL      0.035019
    120 H56         3.9180   -1.1170    5.4810 hc        1 MOL      0.035019
    121 N11         3.7210   -3.0520    0.4440 n         1 MOL     -0.061495
    122 C40         4.9700   -3.7490    0.1140 c3        1 MOL     -0.177635
    123 C41         6.1750   -2.8170    0.1610 c         1 MOL      0.489144
    124 O16         6.0020   -1.6630    0.3880 o         1 MOL     -0.379844
    125 C42         4.8480   -4.3850   -1.2950 c3        1 MOL     -0.036578
    126 O17         4.8160   -3.2890   -2.2340 oh        1 MOL     -0.575541
    127 H57         3.6790   -2.1240    0.0380 hn        1 MOL      0.187995
    128 H58         5.0940   -4.5270    0.8730 h1        1 MOL      0.120554
    129 H59         4.0300   -5.0980   -1.4240 h1        1 MOL      0.102594
    130 H60         5.7300   -4.9780   -1.5490 h1        1 MOL      0.102594
    131 H61         5.5680   -3.3470   -2.8230 ho        1 MOL      0.399404
    132 N12         7.3890   -3.3610   -0.1510 n         1 MOL     -0.482038
    133 C43         8.6900   -2.6070   -0.1170 c3        1 MOL      0.117093
    134 C44         8.6950   -1.1220   -0.7050 c         1 MOL      0.526450
    135 O18         9.0490   -0.2080    0.0410 o         1 MOL     -0.545935
    136 C45         9.8740   -3.3800   -0.7590 c3        1 MOL     -0.237483
    137 H62         7.4720   -4.3330   -0.4140 hn        1 MOL      0.300248
    138 H63         8.8850   -2.3960    0.9370 h1        1 MOL      0.065917
    139 H64         9.8930   -3.2180   -1.8360 hc        1 MOL      0.069309
    140 H65        10.8580   -3.1320   -0.3790 hc        1 MOL      0.069309
    141 H66         9.6700   -4.4480   -0.7100 hc        1 MOL      0.069309
    142 N13         8.0190   -0.9540   -1.7940 n         1 MOL     -0.392916
    143 C46         7.9360    0.3230   -2.5210 c3        1 MOL      0.154144
    144 C47         7.0780    1.4280   -1.8770 c         1 MOL      0.384148
    145 O19         7.5080    2.5350   -1.7010 o         1 MOL     -0.492028
    146 C48         7.5960    0.0710   -4.0110 c3        1 MOL     -0.220750
    147 H67         7.7230   -1.7540   -2.3360 hn        1 MOL      0.243181
    148 H68         8.9780    0.6510   -2.4780 h1        1 MOL      0.064332
    149 H69         7.9370    0.9320   -4.5960 hc        1 MOL      0.060555
    150 H70         8.1700   -0.8140   -4.2760 hc        1 MOL      0.060555
    151 H71         6.5350   -0.1510   -4.1110 hc        1 MOL      0.060555
    152 N14         5.8570    1.0410   -1.4650 n         1 MOL     -0.220193
    153 C49         4.8670    1.9000   -0.7540 c3        1 MOL     -0.218998
    154 C50         5.4610    2.3790    0.6100 c         1 MOL      0.467968
    155 O20         5.1600    3.4930    1.0520 o         1 MOL     -0.563796
    156 C51         3.4930    1.2140   -0.5940 c3        1 MOL      0.183742
    157 C52         2.7580    0.9170   -1.8950 c3        1 MOL     -0.152224
    158 C53         1.3790    0.3500   -1.4520 c         1 MOL      0.802660
    159 O21         0.9770   -0.7860   -1.8310 o         1 MOL     -0.753292
    160 O22         0.5790    1.0610   -0.8730 o         1 MOL     -0.753292
    161 H72         5.5800    0.1190   -1.7720 hn        1 MOL      0.237652
    162 H73         4.6730    2.7920   -1.3470 h1        1 MOL      0.119151
    163 H74         2.8260    1.7430    0.0900 hc        1 MOL      0.012108
    164 H75         3.8260    0.2800   -0.1370 hc        1 MOL      0.012108
    165 H76         3.3060    0.1960   -2.4950 hc        1 MOL      0.001645
    166 H77         2.5540    1.8110   -2.4800 hc        1 MOL      0.001645
    167 N15         6.2460    1.4780    1.2690 n         1 MOL     -0.055943
    168 C54         7.0300    1.8930    2.4720 c3        1 MOL     -0.248920
    169 H78         7.6860    1.0770    2.7770 h1        1 MOL      0.100774
    170 H79         7.6310    2.7700    2.2300 h1        1 MOL      0.100774
    171 H80         6.3470    2.1320    3.2880 h1        1 MOL      0.100774
    172 H81         6.3050    0.5130    0.9730 hn        1 MOL      0.154366
    173 Ca1        -1.5880   -0.5860   -1.3400 Ca        1 MOL      1.714802
    174 O23        -0.6730   -0.6490   -3.9460 oh        1 MOL     -0.799766
    175 H82         0.2100   -0.9770   -4.1140 ho        1 MOL      0.392667
    176 H83        -0.8580   -0.0800   -4.6960 ho        1 MOL      0.392667
    177 O24        -0.9610   -3.3760   -1.8680 oh        1 MOL     -0.799766
    178 H84        -1.1510   -3.8760   -1.0700 ho        1 MOL      0.392667
    179 H85        -0.0090   -3.3310   -1.9070 ho        1 MOL      0.392667
@<TRIPOS>BOND
     1    1    2 1   
     2    1    4 1   
     3    1    5 1   
     4    1    6 1   
     5    2    3 2   
     6    2    7 1   
     7    7    8 1   
     8    7   15 1   
     9    8    9 1   
    10    8   11 1   
    11    8   16 1   
    12    9   10 2   
    13    9   19 1   
    14   11   12 1   
    15   11   17 1   
    16   11   18 1   
    17   12   13 1   
    18   12   14 1   
    19   19   20 1   
    20   19   28 1   
    21   20   21 1   
    22   20   23 1   
    23   20   29 1   
    24   21   22 2   
    25   21   41 1   
    26   23   24 1   
    27   23   30 1   
    28   23   31 1   
    29   24   25 1   
    30   24   32 1   
    31   24   33 1   
    32   25   26 1   
    33   25   34 1   
    34   25   35 1   
    35   26   27 1   
    36   26   36 1   
    37   26   37 1   
    38   27   38 1   
    39   27   39 1   
    40   27   40 1   
    41   41   42 1   
    42   41   49 1   
    43   42   43 1   
    44   42   45 1   
    45   42   50 1   
    46   43   44 2   
    47   43   53 1   
    48   45   46 1   
    49   45   51 1   
    50   45   52 1   
    51   46   47 1   
    52   46   48 1   
    53   53   54 1   
    54   53   57 1   
    55   54   55 1   
    56   54   58 1   
    57   54   59 1   
    58   55   56 2   
    59   55   60 1   
    60   60   61 1   
    61   60   68 1   
    62   61   62 1   
    63   61   64 1   
    64   61   69 1   
    65   62   63 2   
    66   62   74 1   
    67   64   65 1   
    68   64   70 1   
    69   64   71 1   
    70   65   66 1   
    71   65   67 2   
    72   66   72 1   
    73   66   73 1   
    74   74   75 1   
    75   74   78 1   
    76   75   76 1   
    77   75   79 1   
    78   75   80 1   
    79   76   77 2   
    80   76   81 1   
    81   81   82 1   
    82   81   93 1   
    83   82   83 1   
    84   82   85 1   
    85   82   94 1   
    86   83   84 2   
    87   83  102 1   
    88   85   86 1   
    89   85   95 1   
    90   85   96 1   
    91   86   87 ar  
    92   86   88 ar  
    93   87   89 ar  
    94   87   97 1   
    95   88   90 ar  
    96   88   98 1   
    97   89   91 ar  
    98   89   99 1   
    99   90   91 ar  
   100   90  100 1   
   101   91   92 1   
   102   92  101 1   
   103  102  103 1   
   104  102  110 1   
   105  103  104 1   
   106  103  106 1   
   107  103  111 1   
   108  104  105 2   
   109  104  121 1   
   110  106  107 1   
   111  106  108 1   
   112  106  112 1   
   113  107  109 1   
   114  107  113 1   
   115  107  114 1   
   116  108  115 1   
   117  108  116 1   
   118  108  117 1   
   119  109  118 1   
   120  109  119 1   
   121  109  120 1   
   122  121  122 1   
   123  121  127 1   
   124  122  123 1   
   125  122  125 1   
   126  122  128 1   
   127  123  124 2   
   128  123  132 1   
   129  125  126 1   
   130  125  129 1   
   131  125  130 1   
   132  126  131 1   
   133  132  133 1   
   134  132  137 1   
   135  133  134 1   
   136  133  136 1   
   137  133  138 1   
   138  134  135 2   
   139  134  142 1   
   140  136  139 1   
   141  136  140 1   
   142  136  141 1   
   143  142  143 1   
   144  142  147 1   
   145  143  144 1   
   146  143  146 1   
   147  143  148 1   
   148  144  145 2   
   149  144  152 1   
   150  146  149 1   
   151  146  150 1   
   152  146  151 1   
   153  152  153 1   
   154  152  161 1   
   155  153  154 1   
   156  153  156 1   
   157  153  162 1   
   158  154  155 2   
   159  154  167 1   
   160  156  157 1   
   161  156  163 1   
   162  156  164 1   
   163  157  158 1   
   164  157  165 1   
   165  157  166 1   
   166  158  159 1   
   167  158  160 1   
   168  167  168 1   
   169  167  172 1   
   170  168  169 1   
   171  168  170 1   
   172  168  171 1   
   173  174  175 1   
   174  174  176 1   
   175  177  178 1   
   176  177  179 1   
@<TRIPOS>SUBSTRUCTURE
     1 MOL         1 TEMP              0 ****  ****    0 ROOT
