@<TRIPOS>MOLECULE
MOL
  180   179     1     0     0
SMALL
resp


@<TRIPOS>ATOM
      1 C1         -0.5750    1.4190    6.2310 c3        1 MOL     -0.212471
      2 C2         -0.9650    1.7020    4.7700 c         1 MOL      0.766468
      3 O1         -0.2600    2.3790    4.0420 o         1 MOL     -0.609264
      4 H1         -0.7530    2.3110    6.8330 hc        1 MOL      0.037010
      5 H2         -1.1770    0.5950    6.6150 hc        1 MOL      0.037010
      6 H3          0.4810    1.1530    6.2800 hc        1 MOL      0.037010
      7 N1         -2.0880    1.2240    4.3690 n         1 MOL     -0.626894
      8 C3         -2.6520    1.3560    3.0440 c3        1 MOL      0.251561
      9 C4         -3.1280    2.7660    2.7060 c         1 MOL      0.437096
     10 O2         -3.8490    3.4970    3.4400 o         1 MOL     -0.594154
     11 C5         -3.7050    0.3020    2.6480 c3        1 MOL     -0.412101
     12 C6         -4.3390    0.5150    1.2250 c         1 MOL      0.714990
     13 O3         -5.5180    0.1910    1.0590 o         1 MOL     -0.634243
     14 O4         -3.5950    0.7670    0.2550 o         1 MOL     -0.634243
     15 H4         -2.6410    0.8580    5.1290 hn        1 MOL      0.314891
     16 H5         -1.7730    1.1630    2.4270 h1        1 MOL      0.072370
     17 H6         -4.4690    0.3680    3.4210 hc        1 MOL      0.088339
     18 H7         -3.2620   -0.6830    2.7720 hc        1 MOL      0.088339
     19 N2         -2.5320    3.2170    1.6220 n         1 MOL     -0.208156
     20 C7         -2.6900    4.6210    1.0410 c3        1 MOL     -0.045254
     21 C8         -3.6490    4.5300   -0.0880 c         1 MOL      0.332622
     22 O5         -4.3930    5.5430   -0.3200 o         1 MOL     -0.572881
     23 C9         -1.3400    5.2020    0.6500 c3        1 MOL      0.185821
     24 C10        -0.3960    5.2100    1.8900 c3        1 MOL     -0.009396
     25 C11        -1.6240    6.5960    0.0710 c3        1 MOL     -0.281672
     26 C12         0.9390    5.8470    1.5620 c3        1 MOL     -0.037287
     27 H8         -1.9690    2.5800    1.0790 hn        1 MOL      0.118120
     28 H9         -3.1940    5.2550    1.7670 h1        1 MOL      0.091170
     29 H10        -0.8070    4.6800   -0.1470 hc        1 MOL      0.064951
     30 H11        -0.2120    4.2010    2.2500 hc        1 MOL     -0.000690
     31 H12        -0.8990    5.7500    2.6960 hc        1 MOL     -0.000690
     32 H13        -2.1690    7.2730    0.7220 hc        1 MOL      0.057596
     33 H14        -0.6910    7.0950   -0.1940 hc        1 MOL      0.057596
     34 H15        -2.2070    6.4740   -0.8460 hc        1 MOL      0.057596
     35 H16         1.3670    5.4390    0.6530 hc        1 MOL     -0.004662
     36 H17         0.8940    6.9370    1.4890 hc        1 MOL     -0.004662
     37 H18         1.6030    5.7160    2.4150 hc        1 MOL     -0.004662
     38 N3         -3.7350    3.4330   -0.7580 n         1 MOL      0.005526
     39 C13        -4.5550    3.2450   -1.9580 c3        1 MOL     -0.169335
     40 C14        -6.0540    3.0800   -1.6510 c         1 MOL      0.536539
     41 O6         -6.8380    3.6600   -2.3860 o         1 MOL     -0.565086
     42 C15        -4.0120    2.1020   -2.8070 c3        1 MOL      0.039903
     43 C16        -2.5380    2.1010   -3.1730 c         1 MOL      0.562112
     44 O7         -2.0080    3.1270   -3.6770 o         1 MOL     -0.650991
     45 O8         -1.8290    1.0690   -2.8910 o         1 MOL     -0.650991
     46 H19        -3.2630    2.5930   -0.4510 hn        1 MOL      0.123089
     47 H20        -4.5080    4.2010   -2.4930 h1        1 MOL      0.098676
     48 H21        -4.6010    2.0880   -3.7290 hc        1 MOL     -0.012763
     49 H22        -4.1850    1.2110   -2.2080 hc        1 MOL     -0.012763
     50 N4         -6.3840    2.4140   -0.5510 n         1 MOL     -0.319369
     51 C17        -7.7760    2.0060   -0.2340 c3        1 MOL     -0.042511
     52 C18        -8.0750    0.6590   -0.8100 c         1 MOL      0.469245
     53 O9         -9.2290    0.3690   -1.1400 o         1 MOL     -0.621396
     54 H23        -5.6590    1.9340   -0.0320 hn        1 MOL      0.195312
     55 H24        -8.4740    2.7170   -0.6720 h1        1 MOL      0.069837
     56 H25        -7.9830    2.0510    0.8340 h1        1 MOL      0.069837
     57 N5         -7.0810   -0.2010   -1.0320 n         1 MOL     -0.153506
     58 C19        -7.2030   -1.4970   -1.7460 c3        1 MOL     -0.015895
     59 C20        -7.2530   -2.7130   -0.8610 c         1 MOL      0.275789
     60 O10        -7.3240   -3.8920   -1.3390 o         1 MOL     -0.538451
     61 C21        -6.1230   -1.6340   -2.7680 c3        1 MOL     -0.275078
     62 C22        -4.7290   -1.5730   -2.2670 c         1 MOL      0.833124
     63 O11        -3.8320   -1.3450   -3.0610 o         1 MOL     -0.775795
     64 O12        -4.3960   -1.6900   -1.0870 o         1 MOL     -0.775795
     65 H26        -6.1520   -0.0200   -0.6820 hn        1 MOL      0.199733
     66 H27        -8.1710   -1.5460   -2.2430 h1        1 MOL      0.103898
     67 H28        -6.3170   -0.8510   -3.4880 hc        1 MOL      0.080668
     68 H29        -6.2560   -2.5780   -3.2940 hc        1 MOL      0.080668
     69 N6         -6.9650   -2.4810    0.3980 n         1 MOL      0.000534
     70 C23        -6.9410   -3.4940    1.4680 c3        1 MOL     -0.156112
     71 C24        -5.6550   -4.3800    1.4460 c         1 MOL      0.612103
     72 O13        -5.7380   -5.5290    1.8230 o         1 MOL     -0.597765
     73 H30        -6.9810   -1.5120    0.6910 hn        1 MOL      0.142330
     74 H31        -7.8730   -4.0520    1.4220 h1        1 MOL      0.055179
     75 H32        -6.8600   -2.9010    2.3710 h1        1 MOL      0.055179
     76 N7         -4.5730   -3.8290    1.0090 n         1 MOL     -0.293466
     77 C25        -3.2410   -4.3340    1.0110 c3        1 MOL     -0.056239
     78 C26        -2.1340   -3.2940    1.2280 c         1 MOL      0.597676
     79 O14        -2.3080   -2.0580    1.1410 o         1 MOL     -0.686475
     80 C27        -3.0490   -5.4040   -0.1030 c3        1 MOL      0.000404
     81 C28        -3.3270   -4.9130   -1.5510 c3        1 MOL     -0.084758
     82 C29        -2.3820   -3.9700   -2.1710 c         1 MOL      0.581150
     83 N8         -2.2170   -3.9480   -3.4800 n         1 MOL     -0.744885
     84 O15        -1.6510   -3.2530   -1.5300 o         1 MOL     -0.590832
     85 H33        -4.6020   -2.8840    0.6650 hn        1 MOL      0.267412
     86 H34        -3.1420   -4.9020    1.9380 h1        1 MOL      0.032739
     87 H35        -3.6180   -6.3080    0.1260 hc        1 MOL      0.015341
     88 H36        -2.0210   -5.7410   -0.0650 hc        1 MOL      0.015341
     89 H37        -4.3170   -4.4720   -1.5520 hc        1 MOL      0.045779
     90 H38        -3.3500   -5.8020   -2.1730 hc        1 MOL      0.045779
     91 H39        -2.6610   -4.6030   -4.0930 hn        1 MOL      0.356330
     92 H40        -1.6690   -3.1700   -3.8170 hn        1 MOL      0.356330
     93 N9         -0.9490   -3.7550    1.5270 n         1 MOL     -0.254626
     94 C30         0.2800   -3.0640    1.9060 c3        1 MOL      0.000044
     95 C31         1.3870   -3.3260    0.8940 c         1 MOL      0.360459
     96 O16         1.9610   -4.3640    0.8470 o         1 MOL     -0.570877
     97 C32         0.7320   -3.3590    3.3350 c3        1 MOL      0.286057
     98 C33         1.8780   -2.4030    3.7480 c3        1 MOL     -0.283779
     99 C34        -0.4780   -3.2550    4.3370 c3        1 MOL     -0.283779
    100 H41        -0.8950   -4.7680    1.5890 hn        1 MOL      0.214070
    101 H42         0.0400   -2.0000    1.8840 h1        1 MOL      0.110691
    102 H43         1.0240   -4.4120    3.4100 hc        1 MOL     -0.047220
    103 H44         1.4600   -1.4150    3.5160 hc        1 MOL      0.056785
    104 H45         2.0890   -2.3470    4.8070 hc        1 MOL      0.056785
    105 H46         2.7590   -2.6650    3.1610 hc        1 MOL      0.056785
    106 H47        -1.0910   -2.3460    4.3080 hc        1 MOL      0.056785
    107 H48        -1.1650   -4.0730    4.1500 hc        1 MOL      0.056785
    108 H49        -0.0510   -3.3850    5.3260 hc        1 MOL      0.056785
    109 N10         1.7270   -2.3600    0.0830 n         1 MOL     -0.209422
    110 C35         2.8090   -2.4170   -0.9170 c3        1 MOL      0.223680
    111 C36         4.1190   -2.0340   -0.2940 c         1 MOL      0.554521
    112 O17         4.2020   -1.4300    0.7670 o         1 MOL     -0.397917
    113 C37         2.3870   -1.5090   -2.0370 c3        1 MOL     -0.584637
    114 C38         1.1120   -1.9160   -2.9170 c         1 MOL      0.926152
    115 N11         1.2490   -2.9520   -3.6840 n         1 MOL     -0.901938
    116 O18         0.1150   -1.2490   -2.7880 o         1 MOL     -0.679016
    117 H50         1.0800   -1.5860    0.1030 hn        1 MOL      0.151021
    118 H51         2.9740   -3.4450   -1.2310 h1        1 MOL      0.015135
    119 H52         3.2500   -1.4670   -2.7020 hc        1 MOL      0.144391
    120 H53         2.1430   -0.4930   -1.7390 hc        1 MOL      0.144391
    121 H54         2.1570   -3.4070   -3.7280 hn        1 MOL      0.392548
    122 H55         0.4810   -3.0780   -4.3390 hn        1 MOL      0.392548
    123 N12         5.2540   -2.2490   -1.0020 n         1 MOL     -0.807579
    124 C39         6.5880   -1.8370   -0.5190 c3        1 MOL      0.622507
    125 C40         6.7900   -0.3120   -0.3300 c         1 MOL      0.444381
    126 O19         7.3560    0.1310    0.6420 o         1 MOL     -0.478701
    127 C41         7.6500   -2.4250   -1.4830 c3        1 MOL     -0.208237
    128 C42         9.0900   -2.2190   -1.0540 ca        1 MOL      0.096994
    129 C43         9.4620   -2.3880    0.2650 ca        1 MOL     -0.205368
    130 C44        10.0530   -2.0070   -2.0480 ca        1 MOL     -0.205368
    131 C45        10.7800   -2.2570    0.7020 ca        1 MOL     -0.212289
    132 C46        11.4000   -1.9190   -1.6500 ca        1 MOL     -0.212289
    133 C47        11.7570   -2.0370   -0.2440 ca        1 MOL      0.274966
    134 O20        13.0300   -1.9530    0.1450 oh        1 MOL     -0.446883
    135 H56         5.2490   -2.8180   -1.8330 hn        1 MOL      0.327546
    136 H57         6.6590   -2.2960    0.4700 h1        1 MOL     -0.040967
    137 H58         7.3860   -2.0750   -2.4770 hc        1 MOL      0.036386
    138 H59         7.4540   -3.5020   -1.5080 hc        1 MOL      0.036386
    139 H60         8.6500   -2.6760    0.9130 ha        1 MOL      0.130406
    140 H61         9.8400   -1.8410   -3.1000 ha        1 MOL      0.130406
    141 H62        11.0990   -2.3770    1.7230 ha        1 MOL      0.133032
    142 H63        12.1950   -1.8860   -2.3750 ha        1 MOL      0.133032
    143 H64        13.6090   -1.7830   -0.6060 ho        1 MOL      0.330514
    144 N13         6.3880    0.4960   -1.3100 n         1 MOL     -0.538639
    145 C48         6.4100    1.9600   -1.2280 c3        1 MOL      0.260918
    146 C49         5.6440    2.4650    0.0540 c         1 MOL      0.070645
    147 O21         6.0430    3.3510    0.7860 o         1 MOL     -0.461126
    148 C50         5.8290    2.5080   -2.4880 c3        1 MOL     -0.015482
    149 C51         5.7580    4.0360   -2.6770 c3        1 MOL     -0.356976
    150 C52         5.0730    4.2830   -4.0340 c         1 MOL      0.800680
    151 O22         5.5420    3.9640   -5.1160 o         1 MOL     -0.740166
    152 O23         4.0520    4.9750   -4.0050 o         1 MOL     -0.740166
    153 H65         6.0730    0.1100   -2.1890 hn        1 MOL      0.269459
    154 H66         7.4460    2.2780   -1.2270 h1        1 MOL      0.045939
    155 H67         4.8210    2.0960   -2.5350 hc        1 MOL     -0.008230
    156 H68         6.4000    2.0650   -3.3050 hc        1 MOL     -0.008230
    157 H69         6.7670    4.4270   -2.6220 hc        1 MOL      0.084029
    158 H70         5.1780    4.4390   -1.8400 hc        1 MOL      0.084029
    159 N14         4.5370    1.8410    0.4230 n         1 MOL      0.047997
    160 C53         3.7040    2.1270    1.6050 c3        1 MOL     -0.172533
    161 C54         4.5380    1.8160    2.9660 c         1 MOL      0.443151
    162 O24         4.4640    2.4960    3.9800 o         1 MOL     -0.544396
    163 C55         2.4010    1.3910    1.5430 c3        1 MOL      0.137808
    164 C56         1.5770    1.8060    0.3440 c3        1 MOL      0.217418
    165 C57         0.2530    1.0270    0.0540 c         1 MOL      0.528518
    166 O25        -0.7680    1.6970   -0.2180 o         1 MOL     -0.647974
    167 O26         0.1360   -0.2010    0.1710 o         1 MOL     -0.647974
    168 H71         4.3290    1.0600   -0.1750 hn        1 MOL      0.172351
    169 H72         3.4890    3.1900    1.7220 h1        1 MOL      0.127777
    170 H73         1.8380    1.4900    2.4750 hc        1 MOL     -0.035287
    171 H74         2.5920    0.3310    1.3350 hc        1 MOL     -0.035287
    172 H75         2.1960    1.7090   -0.5460 hc        1 MOL     -0.038801
    173 H76         1.3340    2.8710    0.4270 hc        1 MOL     -0.038801
    174 N15         5.3830    0.7800    2.8920 n         1 MOL      0.004966
    175 C58         6.1440    0.2030    4.0040 c3        1 MOL     -0.306948
    176 H77         6.0130    0.8210    4.8920 h1        1 MOL      0.101624
    177 H78         5.7840   -0.8050    4.2070 h1        1 MOL      0.101624
    178 H79         7.2010    0.1660    3.7410 h1        1 MOL      0.101624
    179 H80         5.3170    0.1380    2.1240 hn        1 MOL      0.024728
    180 Ca1        -1.9700   -0.7130   -1.1160 Ca        1 MOL      1.739166
@<TRIPOS>BOND
     1    1    2 1   
     2    1    4 1   
     3    1    5 1   
     4    1    6 1   
     5    2    3 2   
     6    2    7 1   
     7    7    8 1   
     8    7   15 1   
     9    8    9 1   
    10    8   11 1   
    11    8   16 1   
    12    9   10 2   
    13    9   19 1   
    14   11   12 1   
    15   11   17 1   
    16   11   18 1   
    17   12   13 1   
    18   12   14 1   
    19   19   20 1   
    20   19   27 1   
    21   20   21 1   
    22   20   23 1   
    23   20   28 1   
    24   21   22 2   
    25   21   38 1   
    26   23   24 1   
    27   23   25 1   
    28   23   29 1   
    29   24   26 1   
    30   24   30 1   
    31   24   31 1   
    32   25   32 1   
    33   25   33 1   
    34   25   34 1   
    35   26   35 1   
    36   26   36 1   
    37   26   37 1   
    38   38   39 1   
    39   38   46 1   
    40   39   40 1   
    41   39   42 1   
    42   39   47 1   
    43   40   41 2   
    44   40   50 1   
    45   42   43 1   
    46   42   48 1   
    47   42   49 1   
    48   43   44 1   
    49   43   45 1   
    50   50   51 1   
    51   50   54 1   
    52   51   52 1   
    53   51   55 1   
    54   51   56 1   
    55   52   53 2   
    56   52   57 1   
    57   57   58 1   
    58   57   65 1   
    59   58   59 1   
    60   58   61 1   
    61   58   66 1   
    62   59   60 2   
    63   59   69 1   
    64   61   62 1   
    65   61   67 1   
    66   61   68 1   
    67   62   63 1   
    68   62   64 1   
    69   69   70 1   
    70   69   73 1   
    71   70   71 1   
    72   70   74 1   
    73   70   75 1   
    74   71   72 2   
    75   71   76 1   
    76   76   77 1   
    77   76   85 1   
    78   77   78 1   
    79   77   80 1   
    80   77   86 1   
    81   78   79 2   
    82   78   93 1   
    83   80   81 1   
    84   80   87 1   
    85   80   88 1   
    86   81   82 1   
    87   81   89 1   
    88   81   90 1   
    89   82   83 1   
    90   82   84 2   
    91   83   91 1   
    92   83   92 1   
    93   93   94 1   
    94   93  100 1   
    95   94   95 1   
    96   94   97 1   
    97   94  101 1   
    98   95   96 2   
    99   95  109 1   
   100   97   98 1   
   101   97   99 1   
   102   97  102 1   
   103   98  103 1   
   104   98  104 1   
   105   98  105 1   
   106   99  106 1   
   107   99  107 1   
   108   99  108 1   
   109  109  110 1   
   110  109  117 1   
   111  110  111 1   
   112  110  113 1   
   113  110  118 1   
   114  111  112 2   
   115  111  123 1   
   116  113  114 1   
   117  113  119 1   
   118  113  120 1   
   119  114  115 1   
   120  114  116 2   
   121  115  121 1   
   122  115  122 1   
   123  123  124 1   
   124  123  135 1   
   125  124  125 1   
   126  124  127 1   
   127  124  136 1   
   128  125  126 2   
   129  125  144 1   
   130  127  128 1   
   131  127  137 1   
   132  127  138 1   
   133  128  129 ar  
   134  128  130 ar  
   135  129  131 ar  
   136  129  139 1   
   137  130  132 ar  
   138  130  140 1   
   139  131  133 ar  
   140  131  141 1   
   141  132  133 ar  
   142  132  142 1   
   143  133  134 1   
   144  134  143 1   
   145  144  145 1   
   146  144  153 1   
   147  145  146 1   
   148  145  148 1   
   149  145  154 1   
   150  146  147 2   
   151  146  159 1   
   152  148  149 1   
   153  148  155 1   
   154  148  156 1   
   155  149  150 1   
   156  149  157 1   
   157  149  158 1   
   158  150  151 1   
   159  150  152 1   
   160  159  160 1   
   161  159  168 1   
   162  160  161 1   
   163  160  163 1   
   164  160  169 1   
   165  161  162 2   
   166  161  174 1   
   167  163  164 1   
   168  163  170 1   
   169  163  171 1   
   170  164  165 1   
   171  164  172 1   
   172  164  173 1   
   173  165  166 1   
   174  165  167 1   
   175  174  175 1   
   176  174  179 1   
   177  175  176 1   
   178  175  177 1   
   179  175  178 1   
@<TRIPOS>SUBSTRUCTURE
     1 MOL         1 TEMP              0 ****  ****    0 ROOT
