@<TRIPOS>MOLECULE
MOL
  189   185     1     0     0
SMALL
resp


@<TRIPOS>ATOM
      1 C1         -0.5440    3.0410   -4.9360 c3        1 MOL     -0.286713
      2 C2          0.1350    2.8480   -3.5910 c         1 MOL      0.695808
      3 O1         -0.4790    3.2880   -2.6110 o         1 MOL     -0.606391
      4 H1         -1.2210    3.8930   -4.8810 hc        1 MOL      0.071223
      5 H2          0.2100    3.2240   -5.7010 hc        1 MOL      0.071223
      6 H3         -1.1100    2.1440   -5.1890 hc        1 MOL      0.071223
      7 N1          1.3080    2.2660   -3.5180 n         1 MOL     -0.601754
      8 C3          2.0410    2.0660   -2.2600 c3        1 MOL      0.099583
      9 C4          2.5730    3.3260   -1.6470 c         1 MOL      0.528116
     10 O2          3.6210    3.8070   -2.0880 o         1 MOL     -0.579426
     11 C5          3.1490    0.9540   -2.4950 c3        1 MOL     -0.163287
     12 C6          3.9580    0.5630   -1.2150 c         1 MOL      0.692597
     13 O3          5.0300   -0.1030   -1.3820 o         1 MOL     -0.698505
     14 O4          3.4690    0.7840   -0.1320 o         1 MOL     -0.698505
     15 H4          1.7580    2.0010   -4.3730 hn        1 MOL      0.327628
     16 H5          1.3020    1.5720   -1.6310 h1        1 MOL      0.044571
     17 H6          3.8220    1.4530   -3.1920 hc        1 MOL      0.036458
     18 H7          2.7880    0.0490   -2.9890 hc        1 MOL      0.036458
     19 N2          1.9020    3.8390   -0.6110 n         1 MOL     -0.062049
     20 C7          2.1060    5.1170    0.1440 c3        1 MOL     -0.096294
     21 C8          2.7270    4.8890    1.5660 c         1 MOL      0.566528
     22 O5          2.6240    5.7650    2.4010 o         1 MOL     -0.562407
     23 C9          0.9550    6.1680    0.2010 c3        1 MOL      0.151611
     24 C10         0.4420    6.5980   -1.1880 c3        1 MOL     -0.064434
     25 C11         1.5670    7.2700   -1.9260 c3        1 MOL     -0.155997
     26 C12         1.1120    8.0910   -3.1330 c3        1 MOL      0.169624
     27 N3          2.2040    8.8360   -3.7880 n4        1 MOL     -0.427343
     28 H8          1.1660    3.2620   -0.2140 hn        1 MOL      0.166241
     29 H9          2.9520    5.5650   -0.3640 h1        1 MOL      0.011203
     30 H10         1.1930    7.0830    0.7510 hc        1 MOL     -0.001437
     31 H11         0.1130    5.8230    0.7970 hc        1 MOL     -0.001437
     32 H12        -0.4230    7.2480   -1.0300 hc        1 MOL      0.033895
     33 H13         0.1580    5.6890   -1.7340 hc        1 MOL      0.033895
     34 H14         2.0980    6.4500   -2.4050 hc        1 MOL      0.058413
     35 H15         2.2440    7.8640   -1.3020 hc        1 MOL      0.058413
     36 H16         0.3260    8.7840   -2.8540 hx        1 MOL      0.050085
     37 H17         0.5960    7.4570   -3.8620 hx        1 MOL      0.050085
     38 H18         1.7970    9.3510   -4.5570 hn        1 MOL      0.339980
     39 H19         2.7360    9.4060   -3.1490 hn        1 MOL      0.339980
     40 H20         2.9310    8.2400   -4.1590 hn        1 MOL      0.339980
     41 N4          3.2720    3.7130    1.7940 n         1 MOL     -0.297823
     42 C13         4.1540    3.3800    2.9580 c3        1 MOL      0.025376
     43 C14         5.4510    2.5380    2.6000 c         1 MOL      0.554589
     44 O6          6.2410    2.3400    3.4690 o         1 MOL     -0.524000
     45 C15         3.3220    2.8900    4.1970 c3        1 MOL     -0.178518
     46 C16         2.4650    1.6270    3.9060 c         1 MOL      0.824928
     47 O7          1.2430    1.5970    4.2340 o         1 MOL     -0.748272
     48 O8          2.9520    0.6910    3.2470 o         1 MOL     -0.748272
     49 H21         3.2530    3.0360    1.0350 hn        1 MOL      0.047641
     50 H22         4.5590    4.3400    3.2540 h1        1 MOL      0.056051
     51 H23         2.6170    3.6670    4.4640 hc        1 MOL      0.047918
     52 H24         3.9360    2.7030    5.0800 hc        1 MOL      0.047918
     53 N5          5.5570    2.0430    1.3780 n         1 MOL     -0.468669
     54 C17         6.8370    1.7180    0.7930 c3        1 MOL     -0.177689
     55 C18         7.2880    0.2680    0.9260 c         1 MOL      0.545632
     56 O9          8.3840   -0.0740    0.5530 o         1 MOL     -0.607073
     57 H25         4.7590    2.0140    0.7620 hn        1 MOL      0.371356
     58 H26         7.5770    2.4470    1.1210 h1        1 MOL      0.116305
     59 H27         6.8220    1.9350   -0.2650 h1        1 MOL      0.116305
     60 N6          6.4640   -0.5020    1.5840 n         1 MOL     -0.230623
     61 C19         6.8430   -1.9430    1.9440 c3        1 MOL     -0.017977
     62 C20         6.8030   -3.0420    0.8370 c         1 MOL      0.390713
     63 O10         7.0800   -4.2270    1.0490 o         1 MOL     -0.532858
     64 C21         6.0070   -2.4480    3.0850 c3        1 MOL     -0.225285
     65 C22         4.5200   -2.1860    2.9430 c         1 MOL      0.764467
     66 O11         3.9980   -2.1310    1.8070 o         1 MOL     -0.668761
     67 O12         3.7370   -2.2550    3.9400 o         1 MOL     -0.668761
     68 H28         5.5570   -0.1330    1.8360 hn        1 MOL      0.189668
     69 H29         7.8370   -1.9720    2.3750 h1        1 MOL      0.117141
     70 H30         6.3930   -1.9520    3.9760 hc        1 MOL      0.069808
     71 H31         6.0610   -3.5300    3.2730 hc        1 MOL      0.069808
     72 N7          6.4700   -2.5780   -0.3690 n         1 MOL     -0.237573
     73 C23         6.5990   -3.4410   -1.5910 c3        1 MOL     -0.042951
     74 C24         5.3830   -4.1980   -1.9380 c         1 MOL      0.415690
     75 O13         5.4520   -5.1660   -2.7400 o         1 MOL     -0.535184
     76 H32         6.1680   -1.6270   -0.5040 hn        1 MOL      0.291314
     77 H33         7.4710   -4.0870   -1.5490 h1        1 MOL      0.080681
     78 H34         6.8620   -2.7490   -2.3850 h1        1 MOL      0.080681
     79 N8          4.2600   -3.8970   -1.1830 n         1 MOL     -0.069669
     80 C25         2.9640   -4.5390   -1.3600 c3        1 MOL     -0.233932
     81 C26         1.8970   -3.5090   -1.3310 c         1 MOL      0.759501
     82 O14         2.1240   -2.3900   -0.8650 o         1 MOL     -0.613766
     83 C27         2.7700   -5.7300   -0.4540 c3        1 MOL      0.405642
     84 C28         3.7010   -6.9290   -0.6120 c3        1 MOL     -0.502021
     85 O15         2.7570   -5.3090    0.8940 oh        1 MOL     -0.589541
     86 H35         4.2260   -3.0780   -0.5930 hn        1 MOL      0.088931
     87 H36         3.0120   -4.9920   -2.3520 h1        1 MOL      0.071209
     88 H37         1.7500   -6.0630   -0.6300 h1        1 MOL      0.014375
     89 H38         3.6410   -4.9510    0.9950 ho        1 MOL      0.372911
     90 H39         3.4370   -7.6210    0.1820 hc        1 MOL      0.138372
     91 H40         3.5760   -7.3340   -1.6120 hc        1 MOL      0.138372
     92 H41         4.7140   -6.6120   -0.3790 hc        1 MOL      0.138372
     93 N9          0.7640   -3.7390   -1.9990 n         1 MOL     -0.625628
     94 C29        -0.4260   -2.9010   -2.1660 c3        1 MOL      0.109816
     95 C30        -1.5920   -3.5080   -1.3900 c         1 MOL      0.536007
     96 O16        -1.7930   -4.6830   -1.3890 o         1 MOL     -0.579951
     97 C31        -0.6390   -2.6280   -3.6450 c3        1 MOL      0.019858
     98 C32         0.3820   -1.5440   -4.1790 c3        1 MOL     -0.003268
     99 C33        -2.0980   -2.1830   -3.9970 c3        1 MOL     -0.014795
    100 C34         0.4210   -1.5020   -5.6560 c3        1 MOL     -0.255679
    101 H42         0.7020   -4.6340   -2.4640 hn        1 MOL      0.291330
    102 H43        -0.1810   -1.9640   -1.6650 h1        1 MOL     -0.012057
    103 H44        -0.5510   -3.5030   -4.2900 hc        1 MOL      0.034584
    104 H45         1.4030   -1.8020   -3.9210 hc        1 MOL      0.077052
    105 H46         0.0800   -0.5480   -3.8660 hc        1 MOL      0.077052
    106 H47        -2.2590   -2.0240   -5.0540 hc        1 MOL     -0.024100
    107 H48        -2.8770   -2.8750   -3.6610 hc        1 MOL     -0.024100
    108 H49        -2.3570   -1.2900   -3.4360 hc        1 MOL     -0.024100
    109 H50        -0.5300   -1.3810   -6.1780 hc        1 MOL      0.058453
    110 H51         1.1750   -0.8090   -6.0190 hc        1 MOL      0.058453
    111 H52         0.7530   -2.4630   -6.0370 hc        1 MOL      0.058453
    112 N10        -2.4320   -2.6950   -0.7630 n         1 MOL     -0.131691
    113 C35        -3.6200   -3.0980   -0.0130 c3        1 MOL      0.044046
    114 C36        -4.9330   -2.7490   -0.6500 c         1 MOL      0.330617
    115 O17        -4.9700   -2.0280   -1.6650 o         1 MOL     -0.365878
    116 C37        -3.5660   -2.6040    1.4010 c3        1 MOL      0.033499
    117 C38        -2.2200   -2.9340    2.1590 c3        1 MOL     -0.347648
    118 O18        -3.8040   -1.2450    1.4860 oh        1 MOL     -0.386243
    119 H53        -2.1910   -1.7150   -0.8390 hn        1 MOL      0.349212
    120 H54        -3.7640   -4.1720   -0.0010 h1        1 MOL      0.070825
    121 H55        -4.3470   -3.1280    1.9510 h1        1 MOL      0.026533
    122 H56        -3.3120   -0.9270    2.2490 ho        1 MOL      0.352373
    123 H57        -2.2320   -2.4830    3.1430 hc        1 MOL      0.103458
    124 H58        -2.0490   -4.0120    2.0800 hc        1 MOL      0.103458
    125 H59        -1.4050   -2.4970    1.5960 hc        1 MOL      0.103458
    126 N11        -6.0890   -3.1640    0.0030 n         1 MOL     -0.315055
    127 C39        -7.5080   -2.7700   -0.4570 c3        1 MOL     -0.116015
    128 C40        -7.7320   -1.2180   -0.3520 c         1 MOL      0.355460
    129 O19        -8.4520   -0.5910   -1.1450 o         1 MOL     -0.481092
    130 C41        -8.5070   -3.3220    0.5000 c3        1 MOL      0.154131
    131 C42        -8.6840   -4.7760    0.2170 c3        1 MOL     -0.287464
    132 O20        -8.2320   -3.0950    1.8640 oh        1 MOL     -0.624797
    133 H60        -6.0400   -3.8740    0.7260 hn        1 MOL      0.275244
    134 H61        -7.7440   -3.0810   -1.4780 h1        1 MOL      0.155648
    135 H62        -9.4300   -2.8190    0.1990 h1        1 MOL      0.095224
    136 H63        -8.6860   -3.7980    2.3170 ho        1 MOL      0.422491
    137 H64        -8.9650   -4.9060   -0.8290 hc        1 MOL      0.087310
    138 H65        -7.9050   -5.5090    0.3920 hc        1 MOL      0.087310
    139 H66        -9.5570   -5.1660    0.7450 hc        1 MOL      0.087310
    140 N12        -7.1160   -0.5940    0.7130 n         1 MOL     -0.075284
    141 C43        -7.1540    0.8640    0.9520 c3        1 MOL     -0.193247
    142 C44        -6.1740    1.6940    0.0540 c         1 MOL      0.386611
    143 O21        -6.4860    2.8250   -0.3170 o         1 MOL     -0.485421
    144 C45        -6.9310    1.1330    2.4400 c3        1 MOL      0.079531
    145 C46        -7.2200    2.6060    2.8880 c3        1 MOL     -0.158784
    146 C47        -6.9830    2.7890    4.3860 c3        1 MOL      0.041811
    147 C48        -8.0960    1.9750    5.0370 c3        1 MOL      0.093650
    148 N13        -8.1720    2.0450    6.4750 n4        1 MOL     -0.345966
    149 H67        -6.5680   -1.1250    1.3710 hn        1 MOL      0.164392
    150 H68        -8.1380    1.2280    0.6650 h1        1 MOL      0.134025
    151 H69        -5.9480    0.7350    2.7140 hc        1 MOL     -0.017521
    152 H70        -7.6670    0.4980    2.9460 hc        1 MOL     -0.017521
    153 H71        -8.2010    2.9990    2.6310 hc        1 MOL      0.073564
    154 H72        -6.4530    3.1620    2.3530 hc        1 MOL      0.073564
    155 H73        -6.9800    3.8250    4.7210 hc        1 MOL      0.030638
    156 H74        -6.0040    2.3720    4.6470 hc        1 MOL      0.030638
    157 H75        -7.9660    0.9100    4.8380 hx        1 MOL      0.058625
    158 H76        -9.0680    2.2970    4.6700 hx        1 MOL      0.058625
    159 H77        -7.8960    1.1760    6.9010 hn        1 MOL      0.282757
    160 H78        -7.6830    2.8370    6.8620 hn        1 MOL      0.282757
    161 H79        -9.1250    2.2180    6.7540 hn        1 MOL      0.282757
    162 N14        -4.9480    1.1270   -0.1770 n         1 MOL     -0.065217
    163 C49        -4.0330    1.6950   -1.1380 c3        1 MOL     -0.203320
    164 C50        -4.7290    1.7160   -2.5640 c         1 MOL      0.446738
    165 O22        -4.7360    2.7030   -3.2950 o         1 MOL     -0.505989
    166 C51        -2.6710    0.9890   -1.1610 c3        1 MOL      0.280878
    167 C52        -1.9040    1.4930    0.0640 c3        1 MOL     -0.263646
    168 C53        -0.5930    0.7460    0.3010 c         1 MOL      0.640026
    169 O23         0.3160    1.3470    0.9150 o         1 MOL     -0.699994
    170 O24        -0.4110   -0.4350   -0.0570 o         1 MOL     -0.699994
    171 H80        -4.8000    0.2870    0.3750 hn        1 MOL      0.075886
    172 H81        -3.9980    2.7540   -0.8870 h1        1 MOL      0.111589
    173 H82        -2.1200    1.1970   -2.0860 hc        1 MOL     -0.051884
    174 H83        -2.8930   -0.0700   -1.0810 hc        1 MOL     -0.051884
    175 H84        -2.5080    1.4050    0.9670 hc        1 MOL      0.059303
    176 H85        -1.6720    2.5360   -0.1240 hc        1 MOL      0.059303
    177 N15        -5.4360    0.5470   -2.9750 n         1 MOL     -0.108396
    178 C54        -6.3240    0.6790   -4.1900 c3        1 MOL     -0.433101
    179 H86        -6.9220    1.5860   -4.1050 h1        1 MOL      0.149271
    180 H87        -5.7080    0.7330   -5.0870 h1        1 MOL      0.149271
    181 H88        -6.9850   -0.1860   -4.2540 h1        1 MOL      0.149271
    182 H89        -5.2270   -0.3490   -2.5620 hn        1 MOL      0.150916
    183 Ca1         1.9010   -0.7470    1.3850 Ca        1 MOL      1.736680
    184 O25        -0.0710   -0.4030    3.2970 oh        1 MOL     -0.887762
    185 H90         0.3280    0.3490    3.7150 ho        1 MOL      0.414804
    186 H91        -0.9890   -0.3570    3.5410 ho        1 MOL      0.414804
    187 O26         1.0680   -3.0740    2.0180 oh        1 MOL     -0.887762
    188 H92         1.7790   -3.7180    1.9630 ho        1 MOL      0.414804
    189 H93         0.5050   -3.3930    2.7150 ho        1 MOL      0.414804
@<TRIPOS>BOND
     1    1    2 1   
     2    1    4 1   
     3    1    5 1   
     4    1    6 1   
     5    2    3 2   
     6    2    7 1   
     7    7    8 1   
     8    7   15 1   
     9    8    9 1   
    10    8   11 1   
    11    8   16 1   
    12    9   10 2   
    13    9   19 1   
    14   11   12 1   
    15   11   17 1   
    16   11   18 1   
    17   12   13 1   
    18   12   14 1   
    19   19   20 1   
    20   19   28 1   
    21   20   21 1   
    22   20   23 1   
    23   20   29 1   
    24   21   22 2   
    25   21   41 1   
    26   23   24 1   
    27   23   30 1   
    28   23   31 1   
    29   24   25 1   
    30   24   32 1   
    31   24   33 1   
    32   25   26 1   
    33   25   34 1   
    34   25   35 1   
    35   26   27 1   
    36   26   36 1   
    37   26   37 1   
    38   27   38 1   
    39   27   39 1   
    40   27   40 1   
    41   41   42 1   
    42   41   49 1   
    43   42   43 1   
    44   42   45 1   
    45   42   50 1   
    46   43   44 2   
    47   43   53 1   
    48   45   46 1   
    49   45   51 1   
    50   45   52 1   
    51   46   47 1   
    52   46   48 1   
    53   53   54 1   
    54   53   57 1   
    55   54   55 1   
    56   54   58 1   
    57   54   59 1   
    58   55   56 2   
    59   55   60 1   
    60   60   61 1   
    61   60   68 1   
    62   61   62 1   
    63   61   64 1   
    64   61   69 1   
    65   62   63 2   
    66   62   72 1   
    67   64   65 1   
    68   64   70 1   
    69   64   71 1   
    70   65   66 1   
    71   65   67 1   
    72   72   73 1   
    73   72   76 1   
    74   73   74 1   
    75   73   77 1   
    76   73   78 1   
    77   74   75 2   
    78   74   79 1   
    79   79   80 1   
    80   79   86 1   
    81   80   81 1   
    82   80   83 1   
    83   80   87 1   
    84   81   82 2   
    85   81   93 1   
    86   83   84 1   
    87   83   85 1   
    88   83   88 1   
    89   84   90 1   
    90   84   91 1   
    91   84   92 1   
    92   85   89 1   
    93   93   94 1   
    94   93  101 1   
    95   94   95 1   
    96   94   97 1   
    97   94  102 1   
    98   95   96 2   
    99   95  112 1   
   100   97   98 1   
   101   97   99 1   
   102   97  103 1   
   103   98  100 1   
   104   98  104 1   
   105   98  105 1   
   106   99  106 1   
   107   99  107 1   
   108   99  108 1   
   109  100  109 1   
   110  100  110 1   
   111  100  111 1   
   112  112  113 1   
   113  112  119 1   
   114  113  114 1   
   115  113  116 1   
   116  113  120 1   
   117  114  115 2   
   118  114  126 1   
   119  116  117 1   
   120  116  118 1   
   121  116  121 1   
   122  117  123 1   
   123  117  124 1   
   124  117  125 1   
   125  118  122 1   
   126  126  127 1   
   127  126  133 1   
   128  127  128 1   
   129  127  130 1   
   130  127  134 1   
   131  128  129 2   
   132  128  140 1   
   133  130  131 1   
   134  130  132 1   
   135  130  135 1   
   136  131  137 1   
   137  131  138 1   
   138  131  139 1   
   139  132  136 1   
   140  140  141 1   
   141  140  149 1   
   142  141  142 1   
   143  141  144 1   
   144  141  150 1   
   145  142  143 2   
   146  142  162 1   
   147  144  145 1   
   148  144  151 1   
   149  144  152 1   
   150  145  146 1   
   151  145  153 1   
   152  145  154 1   
   153  146  147 1   
   154  146  155 1   
   155  146  156 1   
   156  147  148 1   
   157  147  157 1   
   158  147  158 1   
   159  148  159 1   
   160  148  160 1   
   161  148  161 1   
   162  162  163 1   
   163  162  171 1   
   164  163  164 1   
   165  163  166 1   
   166  163  172 1   
   167  164  165 2   
   168  164  177 1   
   169  166  167 1   
   170  166  173 1   
   171  166  174 1   
   172  167  168 1   
   173  167  175 1   
   174  167  176 1   
   175  168  169 1   
   176  168  170 1   
   177  177  178 1   
   178  177  182 1   
   179  178  179 1   
   180  178  180 1   
   181  178  181 1   
   182  184  185 1   
   183  184  186 1   
   184  187  188 1   
   185  187  189 1   
@<TRIPOS>SUBSTRUCTURE
     1 MOL         1 TEMP              0 ****  ****    0 ROOT
