@<TRIPOS>MOLECULE
MOL
  179   176     1     0     0
SMALL
resp


@<TRIPOS>ATOM
      1 C1          2.4860    1.3440    5.9230 c3        1 MOL     -0.313590
      2 C2          1.8230    1.6380    4.5320 c         1 MOL      0.873960
      3 O1          2.5680    1.6970    3.5380 o         1 MOL     -0.675241
      4 H1          3.5680    1.4410    5.8370 hc        1 MOL      0.073587
      5 H2          2.1160    2.0560    6.6600 hc        1 MOL      0.073587
      6 H3          2.2360    0.3310    6.2390 hc        1 MOL      0.073587
      7 N1          0.5120    1.8270    4.3530 n         1 MOL     -0.678127
      8 C3         -0.1500    1.9660    3.0240 c3        1 MOL      0.015875
      9 C4          0.1960    3.3570    2.4800 c         1 MOL      0.512832
     10 O2         -0.0180    4.3990    3.1180 o         1 MOL     -0.559084
     11 C5         -1.6750    1.8320    3.1430 c3        1 MOL      0.046396
     12 C6         -2.4360    1.7490    1.7950 c         1 MOL      0.572587
     13 O3         -3.6530    1.5260    1.7490 o         1 MOL     -0.719353
     14 O4         -1.8880    1.8730    0.6790 o         1 MOL     -0.719353
     15 H4         -0.1110    1.4470    5.0480 hn        1 MOL      0.321691
     16 H5          0.1260    1.0840    2.4350 h1        1 MOL      0.065280
     17 H6         -2.1220    2.5830    3.7850 hc        1 MOL      0.024203
     18 H7         -1.9500    0.9510    3.7170 hc        1 MOL      0.024203
     19 N2          0.9420    3.4180    1.3930 n         1 MOL     -0.001994
     20 C7          1.4690    4.6710    0.8910 c3        1 MOL     -0.249816
     21 C8          0.4760    5.4510    0.0650 c         1 MOL      0.506979
     22 O5          0.4550    6.6700    0.0440 o         1 MOL     -0.556059
     23 C9          2.8060    4.3460    0.1500 c3        1 MOL     -0.060194
     24 C10         3.6620    5.6740    0.0900 c3        1 MOL     -0.093094
     25 C11         5.0360    5.4000   -0.5370 c3        1 MOL     -0.297803
     26 C12         5.8110    6.7060   -0.8940 c3        1 MOL      0.128199
     27 N3          7.1040    6.4390   -1.5370 n4        1 MOL     -0.414320
     28 H8          1.2140    2.6220    0.8330 hn        1 MOL      0.101371
     29 H9          1.7270    5.3540    1.6990 h1        1 MOL      0.133957
     30 H10         2.6000    3.9280   -0.8380 hc        1 MOL      0.100061
     31 H11         3.4010    3.6220    0.7090 hc        1 MOL      0.100061
     32 H12         3.8760    6.1610    1.0310 hc        1 MOL      0.077617
     33 H13         3.1350    6.4790   -0.4400 hc        1 MOL      0.077617
     34 H14         5.0510    4.7430   -1.4020 hc        1 MOL      0.114606
     35 H15         5.5790    4.7940    0.1920 hc        1 MOL      0.114606
     36 H16         5.9810    7.3200   -0.0030 hx        1 MOL      0.083409
     37 H17         5.2030    7.3790   -1.5000 hx        1 MOL      0.083409
     38 H18         7.2930    7.1260   -2.2510 hn        1 MOL      0.339535
     39 H19         7.9010    6.3600   -0.9200 hn        1 MOL      0.339535
     40 H20         7.1200    5.5510   -2.0200 hn        1 MOL      0.339535
     41 N4         -0.4300    4.7610   -0.6060 n         1 MOL     -0.203391
     42 C13        -1.4670    5.4340   -1.4700 c3        1 MOL     -0.115853
     43 C14        -2.9100    5.3840   -0.8790 c         1 MOL      0.495741
     44 O6         -3.8570    5.9650   -1.4280 o         1 MOL     -0.519175
     45 C15        -1.4060    4.8260   -2.8610 c3        1 MOL      0.123950
     46 C16        -1.8290    3.4040   -3.0410 c         1 MOL      0.588720
     47 O7         -2.0720    3.0280   -4.2280 o         1 MOL     -0.716679
     48 O8         -1.9220    2.6180   -2.0820 o         1 MOL     -0.716679
     49 H21        -0.5490    3.7600   -0.5440 hn        1 MOL      0.154157
     50 H22        -1.2140    6.4790   -1.6310 h1        1 MOL      0.102892
     51 H23        -0.3720    4.8940   -3.1820 hc        1 MOL     -0.019468
     52 H24        -1.9260    5.4690   -3.5770 hc        1 MOL     -0.019468
     53 N5         -3.0180    4.6910    0.3130 n         1 MOL     -0.241951
     54 C17        -4.1990    4.5700    1.1030 c3        1 MOL     -0.119082
     55 C18        -5.3160    3.7210    0.3750 c         1 MOL      0.519119
     56 O9         -6.5390    3.7630    0.6430 o         1 MOL     -0.590874
     57 H25        -2.2260    4.1300    0.5980 hn        1 MOL      0.167078
     58 H26        -4.6310    5.5370    1.3580 h1        1 MOL      0.098909
     59 H27        -3.9200    4.0310    2.0100 h1        1 MOL      0.098909
     60 N6         -4.9520    2.7770   -0.5140 n         1 MOL     -0.238491
     61 C19        -5.8710    1.9320   -1.3740 c3        1 MOL     -0.072104
     62 C20        -6.3700    0.7070   -0.5650 c         1 MOL      0.368870
     63 O10        -7.1330   -0.0910   -1.1440 o         1 MOL     -0.548312
     64 C21        -5.2820    1.4340   -2.7430 c3        1 MOL     -0.325767
     65 C22        -4.3440    0.1810   -2.6180 c         1 MOL      0.591222
     66 N7         -4.0140   -0.4430   -3.7070 n         1 MOL     -0.887306
     67 O11        -3.7830   -0.0630   -1.5810 o         1 MOL     -0.421395
     68 H28        -3.9690    2.6090   -0.6720 hn        1 MOL      0.198071
     69 H29        -6.7070    2.5840   -1.6420 h1        1 MOL      0.152848
     70 H30        -4.6060    2.2260   -3.0890 hc        1 MOL      0.152558
     71 H31        -6.0830    1.2910   -3.4630 hc        1 MOL      0.152558
     72 H32        -4.5170   -0.2110   -4.5520 hn        1 MOL      0.406189
     73 H33        -3.2370   -1.0920   -3.6510 hn        1 MOL      0.406189
     74 N8         -6.0740    0.5400    0.6990 n         1 MOL     -0.068967
     75 C23        -6.5930   -0.4800    1.5750 c3        1 MOL     -0.436068
     76 C24        -5.7290   -1.7500    1.7240 c         1 MOL      0.627083
     77 O12        -6.0360   -2.7420    2.4240 o         1 MOL     -0.537640
     78 H34        -5.2900    1.1410    0.9470 hn        1 MOL      0.296303
     79 H35        -7.5090   -0.9050    1.1590 h1        1 MOL      0.174704
     80 H36        -6.7810   -0.1660    2.6020 h1        1 MOL      0.174704
     81 N9         -4.6020   -1.7350    0.9880 n         1 MOL     -0.449718
     82 C25        -3.6820   -2.8770    0.9530 c3        1 MOL      0.262534
     83 C26        -2.2150   -2.4970    0.9860 c         1 MOL      0.630807
     84 O13        -1.7460   -1.5460    0.3310 o         1 MOL     -0.663199
     85 C27        -3.9530   -3.7120   -0.3000 c3        1 MOL      0.091059
     86 C28        -5.4310   -4.0840   -0.3990 ca        1 MOL      0.078385
     87 C29        -5.9370   -5.1760    0.3270 ca        1 MOL     -0.162880
     88 C30        -6.2190   -3.6160   -1.4670 ca        1 MOL     -0.162880
     89 C31        -7.2120   -5.6070    0.2220 ca        1 MOL     -0.296897
     90 C32        -7.4970   -4.1960   -1.7240 ca        1 MOL     -0.296897
     91 C33        -8.0450   -5.0970   -0.7880 ca        1 MOL      0.390328
     92 O14        -9.3540   -5.3780   -0.8650 oh        1 MOL     -0.511072
     93 H37        -4.3100   -0.8930    0.5110 hn        1 MOL      0.236572
     94 H38        -3.8460   -3.4280    1.8720 h1        1 MOL     -0.035943
     95 H39        -3.4450   -4.6800   -0.2930 hc        1 MOL     -0.054410
     96 H40        -3.7500   -3.1760   -1.2300 hc        1 MOL     -0.054410
     97 H41        -5.3230   -5.6330    1.0870 ha        1 MOL      0.141483
     98 H42        -5.6900   -2.9520   -2.1430 ha        1 MOL      0.141483
     99 H43        -7.6900   -6.3120    0.8850 ha        1 MOL      0.151905
    100 H44        -8.0410   -3.9140   -2.6130 ha        1 MOL      0.151905
    101 H45        -9.8850   -4.9240   -1.5250 ho        1 MOL      0.381762
    102 N10        -1.3970   -3.1940    1.7400 n         1 MOL     -0.751268
    103 C34         0.0800   -3.1020    1.8110 c3        1 MOL      0.151558
    104 C35         0.6030   -4.1060    0.8400 c         1 MOL      0.546512
    105 O15         0.1960   -5.2920    0.9710 o         1 MOL     -0.554385
    106 C36         0.5870   -3.3050    3.2670 c3        1 MOL      0.150209
    107 C37        -0.1450   -2.4690    4.3260 c3        1 MOL      0.345546
    108 C38         2.1000   -2.9680    3.2300 c3        1 MOL     -0.199445
    109 C39         0.1850   -2.8820    5.7400 c3        1 MOL     -0.371254
    110 H46        -1.8370   -3.8230    2.3990 hn        1 MOL      0.371812
    111 H47         0.4530   -2.1040    1.5790 h1        1 MOL      0.077120
    112 H48         0.3480   -4.3440    3.5070 hc        1 MOL     -0.024515
    113 H49        -1.1740   -2.8020    4.3480 hc        1 MOL     -0.083429
    114 H50        -0.0820   -1.3850    4.1730 hc        1 MOL     -0.083429
    115 H51         2.5880   -3.5080    2.4250 hc        1 MOL      0.017445
    116 H52         2.1800   -1.8800    3.1280 hc        1 MOL      0.017445
    117 H53         2.5550   -3.3370    4.1600 hc        1 MOL      0.017445
    118 H54        -0.5050   -2.3810    6.4160 hc        1 MOL      0.086801
    119 H55         0.0960   -3.9580    5.8610 hc        1 MOL      0.086801
    120 H56         1.2350   -2.6040    5.8310 hc        1 MOL      0.086801
    121 N11         1.3910   -3.5880   -0.1220 n         1 MOL     -0.251314
    122 C40         2.2390   -4.3030   -1.0730 c3        1 MOL     -0.059085
    123 C41         3.7630   -4.2690   -0.7580 c         1 MOL      0.437596
    124 O16         4.1870   -3.4930    0.1000 o         1 MOL     -0.359162
    125 C42         1.8940   -3.9170   -2.5300 c3        1 MOL      0.094435
    126 O17         2.2800   -2.5370   -2.7130 oh        1 MOL     -0.622311
    127 H57         1.4810   -2.5840   -0.0170 hn        1 MOL      0.187206
    128 H58         1.9460   -5.3560   -1.0570 h1        1 MOL      0.052626
    129 H59         0.8160   -3.9710   -2.7050 h1        1 MOL      0.048144
    130 H60         2.3640   -4.5460   -3.2790 h1        1 MOL      0.048144
    131 H61         1.7320   -2.0020   -2.1420 ho        1 MOL      0.433238
    132 N12         4.5970   -5.0140   -1.4950 n         1 MOL     -0.376517
    133 C43         5.9810   -5.1740   -1.1120 c3        1 MOL      0.045350
    134 C44         6.9200   -3.9500   -1.2920 c         1 MOL      0.394502
    135 O18         7.6590   -3.5980   -0.3160 o         1 MOL     -0.511884
    136 C45         6.6350   -6.3750   -1.8920 c3        1 MOL     -0.174853
    137 H62         4.2210   -5.7490   -2.0810 hn        1 MOL      0.277979
    138 H63         5.9520   -5.3220   -0.0350 h1        1 MOL      0.090356
    139 H64         6.6930   -6.0390   -2.9250 hc        1 MOL      0.066313
    140 H65         7.6780   -6.5380   -1.6240 hc        1 MOL      0.066313
    141 H66         6.1890   -7.3630   -1.8300 hc        1 MOL      0.066313
    142 N13         6.8220   -3.0990   -2.3440 n         1 MOL     -0.250308
    143 C46         7.6270   -1.8890   -2.4270 c3        1 MOL      0.046407
    144 C47         7.3010   -0.7470   -1.3440 c         1 MOL      0.350723
    145 O19         8.1960    0.0620   -0.9460 o         1 MOL     -0.480605
    146 C48         7.6040   -1.3820   -3.8010 c3        1 MOL     -0.361523
    147 H67         6.1440   -3.2870   -3.0640 hn        1 MOL      0.233866
    148 H68         8.6360   -2.2520   -2.2040 h1        1 MOL      0.115554
    149 H69         6.6180   -1.3940   -4.2710 hc        1 MOL      0.103476
    150 H70         7.9070   -0.3340   -3.8300 hc        1 MOL      0.103476
    151 H71         8.1880   -2.0250   -4.4610 hc        1 MOL      0.103476
    152 N14         6.0060   -0.6480   -0.9230 n         1 MOL     -0.122441
    153 C49         5.4970    0.2430    0.1360 c3        1 MOL     -0.114601
    154 C50         6.1480   -0.0420    1.4760 c         1 MOL      0.415497
    155 O20         6.7340    0.8460    2.1110 o         1 MOL     -0.516792
    156 C51         4.0190    0.1350    0.2010 c3        1 MOL      0.136876
    157 C52         3.3730    0.6310   -1.0840 c3        1 MOL     -0.052067
    158 C53         1.8740    0.4860   -0.8540 c         1 MOL      0.811254
    159 O21         1.2600   -0.5900   -1.0850 o         1 MOL     -0.787450
    160 O22         1.1580    1.4920   -0.6980 o         1 MOL     -0.787450
    161 H72         5.2900   -1.2500   -1.3080 hn        1 MOL      0.170844
    162 H73         5.6860    1.2920   -0.1020 h1        1 MOL      0.055903
    163 H74         3.6390    0.7630    1.0000 hc        1 MOL     -0.004749
    164 H75         3.7520   -0.8760    0.4930 hc        1 MOL     -0.004749
    165 H76         3.7470    0.0340   -1.9150 hc        1 MOL     -0.026941
    166 H77         3.6710    1.6480   -1.3460 hc        1 MOL     -0.026941
    167 N15         6.2020   -1.3330    1.8190 n         1 MOL     -0.068490
    168 C54         7.0020   -1.9390    2.9120 c3        1 MOL     -0.290237
    169 H78         8.0570   -1.7090    2.7600 h1        1 MOL      0.121545
    170 H79         6.6770   -1.5320    3.8700 h1        1 MOL      0.121545
    171 H80         6.8620   -3.0200    2.9100 h1        1 MOL      0.121545
    172 H81         5.6340   -1.9660    1.2640 hn        1 MOL      0.115912
    173 Ca1        -1.1790    0.3400   -1.4150 Ca        1 MOL      1.726728
    174 O23        -1.4900   -1.9890   -2.6940 oh        1 MOL     -0.884981
    175 H82        -0.9650   -2.0370   -3.4990 ho        1 MOL      0.441809
    176 H83        -1.8570   -2.8680   -2.6060 ho        1 MOL      0.441809
    177 O24         0.1480    0.4910   -3.7390 oh        1 MOL     -0.884981
    178 H84         0.6890    1.2860   -3.6490 ho        1 MOL      0.441809
    179 H85        -0.2340    0.5730   -4.6190 ho        1 MOL      0.441809
@<TRIPOS>BOND
     1    1    2 1   
     2    1    4 1   
     3    1    5 1   
     4    1    6 1   
     5    2    3 2   
     6    2    7 1   
     7    7    8 1   
     8    7   15 1   
     9    8    9 1   
    10    8   11 1   
    11    8   16 1   
    12    9   10 2   
    13    9   19 1   
    14   11   12 1   
    15   11   17 1   
    16   11   18 1   
    17   12   13 1   
    18   12   14 1   
    19   19   20 1   
    20   19   28 1   
    21   20   21 1   
    22   20   23 1   
    23   20   29 1   
    24   21   22 2   
    25   21   41 1   
    26   23   24 1   
    27   23   30 1   
    28   23   31 1   
    29   24   25 1   
    30   24   32 1   
    31   24   33 1   
    32   25   26 1   
    33   25   34 1   
    34   25   35 1   
    35   26   27 1   
    36   26   36 1   
    37   26   37 1   
    38   27   38 1   
    39   27   39 1   
    40   27   40 1   
    41   41   42 1   
    42   41   49 1   
    43   42   43 1   
    44   42   45 1   
    45   42   50 1   
    46   43   44 2   
    47   43   53 1   
    48   45   46 1   
    49   45   51 1   
    50   45   52 1   
    51   46   47 1   
    52   46   48 1   
    53   53   54 1   
    54   53   57 1   
    55   54   55 1   
    56   54   58 1   
    57   54   59 1   
    58   55   56 2   
    59   55   60 1   
    60   60   61 1   
    61   60   68 1   
    62   61   62 1   
    63   61   64 1   
    64   61   69 1   
    65   62   63 2   
    66   62   74 1   
    67   64   65 1   
    68   64   70 1   
    69   64   71 1   
    70   65   66 1   
    71   65   67 2   
    72   66   72 1   
    73   66   73 1   
    74   74   75 1   
    75   74   78 1   
    76   75   76 1   
    77   75   79 1   
    78   75   80 1   
    79   76   77 2   
    80   76   81 1   
    81   81   82 1   
    82   81   93 1   
    83   82   83 1   
    84   82   85 1   
    85   82   94 1   
    86   83   84 2   
    87   83  102 1   
    88   85   86 1   
    89   85   95 1   
    90   85   96 1   
    91   86   87 ar  
    92   86   88 ar  
    93   87   89 ar  
    94   87   97 1   
    95   88   90 ar  
    96   88   98 1   
    97   89   91 ar  
    98   89   99 1   
    99   90   91 ar  
   100   90  100 1   
   101   91   92 1   
   102   92  101 1   
   103  102  103 1   
   104  102  110 1   
   105  103  104 1   
   106  103  106 1   
   107  103  111 1   
   108  104  105 2   
   109  104  121 1   
   110  106  107 1   
   111  106  108 1   
   112  106  112 1   
   113  107  109 1   
   114  107  113 1   
   115  107  114 1   
   116  108  115 1   
   117  108  116 1   
   118  108  117 1   
   119  109  118 1   
   120  109  119 1   
   121  109  120 1   
   122  121  122 1   
   123  121  127 1   
   124  122  123 1   
   125  122  125 1   
   126  122  128 1   
   127  123  124 2   
   128  123  132 1   
   129  125  126 1   
   130  125  129 1   
   131  125  130 1   
   132  126  131 1   
   133  132  133 1   
   134  132  137 1   
   135  133  134 1   
   136  133  136 1   
   137  133  138 1   
   138  134  135 2   
   139  134  142 1   
   140  136  139 1   
   141  136  140 1   
   142  136  141 1   
   143  142  143 1   
   144  142  147 1   
   145  143  144 1   
   146  143  146 1   
   147  143  148 1   
   148  144  145 2   
   149  144  152 1   
   150  146  149 1   
   151  146  150 1   
   152  146  151 1   
   153  152  153 1   
   154  152  161 1   
   155  153  154 1   
   156  153  156 1   
   157  153  162 1   
   158  154  155 2   
   159  154  167 1   
   160  156  157 1   
   161  156  163 1   
   162  156  164 1   
   163  157  158 1   
   164  157  165 1   
   165  157  166 1   
   166  158  159 1   
   167  158  160 1   
   168  167  168 1   
   169  167  172 1   
   170  168  169 1   
   171  168  170 1   
   172  168  171 1   
   173  174  175 1   
   174  174  176 1   
   175  177  178 1   
   176  177  179 1   
@<TRIPOS>SUBSTRUCTURE
     1 MOL         1 TEMP              0 ****  ****    0 ROOT
