@<TRIPOS>MOLECULE
MOL
  175   173     1     0     0
SMALL
resp


@<TRIPOS>ATOM
      1 C1          0.3940    3.9490    5.3680 c3        1 MOL     -0.371270
      2 C2         -0.2670    3.7840    4.0070 c         1 MOL      0.737954
      3 O1          0.4740    3.8680    2.9810 o         1 MOL     -0.541044
      4 H1          0.6440    4.9980    5.5250 hc        1 MOL      0.091363
      5 H2         -0.2910    3.6180    6.1470 hc        1 MOL      0.091363
      6 H3          1.3040    3.3500    5.4060 hc        1 MOL      0.091363
      7 N1         -1.6210    3.6820    3.9600 n         1 MOL     -0.723781
      8 C3         -2.4020    3.4490    2.6610 c3        1 MOL      0.226685
      9 C4         -2.4720    4.6940    1.7440 c         1 MOL      0.616880
     10 O2         -2.6620    5.7910    2.1830 o         1 MOL     -0.580466
     11 C5         -3.7330    2.7030    2.9220 c3        1 MOL     -0.433722
     12 C6         -4.4740    2.4060    1.7010 c         1 MOL      0.746161
     13 O3         -3.8450    1.8120    0.7520 o         1 MOL     -0.626587
     14 O4         -5.6840    2.5730    1.7310 o         1 MOL     -0.626587
     15 H4         -2.1820    3.9090    4.7640 hn        1 MOL      0.365731
     16 H5         -1.7590    2.8020    2.0550 h1        1 MOL      0.046291
     17 H6         -4.3250    3.3290    3.5930 hc        1 MOL      0.099927
     18 H7         -3.6220    1.7590    3.4530 hc        1 MOL      0.099927
     19 N2         -2.2690    4.4660    0.4510 n         1 MOL     -0.511117
     20 C7         -2.2710    5.4930   -0.6170 c3        1 MOL      0.249784
     21 C8         -3.0110    5.0680   -1.8990 c         1 MOL      0.468157
     22 O5         -2.9710    5.8170   -2.8970 o         1 MOL     -0.565073
     23 C9         -0.8450    5.9380   -1.0220 c3        1 MOL     -0.235334
     24 H8         -1.8560    3.5710    0.2280 hn        1 MOL      0.285812
     25 H9         -2.8720    6.3540   -0.3420 h1        1 MOL      0.021706
     26 H10        -0.3250    5.0680   -1.4220 hc        1 MOL      0.061497
     27 H11        -0.8470    6.7590   -1.7410 hc        1 MOL      0.061497
     28 H12        -0.2970    6.3130   -0.1610 hc        1 MOL      0.061497
     29 N3         -3.6940    3.9110   -1.8210 n         1 MOL     -0.312671
     30 C10        -4.4310    3.3400   -2.9870 c3        1 MOL      0.071870
     31 C11        -5.7810    2.6740   -2.6580 c         1 MOL      0.272908
     32 O6         -6.6230    2.4230   -3.5370 o         1 MOL     -0.514293
     33 C12        -3.6010    2.2910   -3.7310 c3        1 MOL     -0.002221
     34 C13        -2.9600    1.2380   -2.8250 c         1 MOL      0.594041
     35 O7         -1.8210    0.7890   -3.0120 o         1 MOL     -0.686592
     36 O8         -3.6190    0.8250   -1.8580 o         1 MOL     -0.686592
     37 H13        -3.7590    3.3980   -0.9580 hn        1 MOL      0.148440
     38 H14        -4.6370    4.1320   -3.7060 h1        1 MOL      0.069745
     39 H15        -2.8390    2.8130   -4.3170 hc        1 MOL      0.010259
     40 H16        -4.2130    1.8300   -4.5060 hc        1 MOL      0.010259
     41 N4         -6.0730    2.2460   -1.4080 n         1 MOL     -0.028756
     42 C14        -7.3470    1.5970   -1.1030 c3        1 MOL     -0.323578
     43 C15        -7.3480    0.0850   -1.4180 c         1 MOL      0.518826
     44 O9         -8.4530   -0.4090   -1.6560 o         1 MOL     -0.574956
     45 H17        -5.5110    2.3920   -0.5850 hn        1 MOL      0.078692
     46 H18        -8.0430    2.0750   -1.7940 h1        1 MOL      0.138216
     47 H19        -7.5940    1.7520   -0.0490 h1        1 MOL      0.138216
     48 N5         -6.2110   -0.6140   -1.6110 n         1 MOL     -0.330195
     49 C16        -6.1010   -1.8970   -2.2430 c3        1 MOL      0.142102
     50 C17        -6.2020   -3.0990   -1.2720 c         1 MOL      0.262386
     51 O10        -6.5280   -4.2020   -1.7110 o         1 MOL     -0.545857
     52 C18        -4.9360   -1.9890   -3.2400 c3        1 MOL     -0.271367
     53 C19        -3.5730   -2.1600   -2.5040 c         1 MOL      0.383153
     54 N6         -2.5250   -2.1750   -3.2830 n         1 MOL     -0.552101
     55 O11        -3.4660   -2.0940   -1.2910 o         1 MOL     -0.136725
     56 H20        -5.2980   -0.1810   -1.5400 hn        1 MOL      0.326444
     57 H21        -7.0050   -2.0270   -2.8320 h1        1 MOL      0.072579
     58 H22        -4.9190   -1.1260   -3.9140 hc        1 MOL      0.082347
     59 H23        -5.0480   -2.9110   -3.8130 hc        1 MOL      0.082347
     60 H24        -2.6900   -2.2850   -4.2710 hn        1 MOL      0.318055
     61 H25        -1.6310   -1.9630   -2.8820 hn        1 MOL      0.318055
     62 N7         -6.0020   -2.9070   -0.0260 n         1 MOL      0.000200
     63 C20        -6.3300   -3.8690    1.0410 c3        1 MOL     -0.213415
     64 C21        -5.0970   -4.5490    1.6200 c         1 MOL      0.498703
     65 O12        -5.1790   -5.4580    2.4950 o         1 MOL     -0.577098
     66 H26        -5.7180   -1.9670    0.2440 hn        1 MOL      0.095802
     67 H27        -7.0810   -4.5600    0.6590 h1        1 MOL      0.103476
     68 H28        -6.8590   -3.2030    1.7320 h1        1 MOL      0.103476
     69 N8         -3.9230   -4.0600    1.1380 n         1 MOL      0.030078
     70 C22        -2.5750   -4.6590    1.5340 c3        1 MOL     -0.556833
     71 C23        -1.5560   -3.5210    1.6410 c         1 MOL      0.865663
     72 O13        -1.7890   -2.4970    1.1020 o         1 MOL     -0.638976
     73 C24        -2.0640   -5.5170    0.3970 c3        1 MOL      0.784300
     74 C25        -2.7710   -6.8750    0.3370 c3        1 MOL     -0.509674
     75 O14        -2.0340   -4.9150   -0.8610 oh        1 MOL     -0.660458
     76 H29        -3.9200   -3.3170    0.4440 hn        1 MOL     -0.065693
     77 H30        -2.5470   -5.3100    2.3990 h1        1 MOL      0.158295
     78 H31        -1.0300   -5.7800    0.6380 h1        1 MOL     -0.093574
     79 H32        -1.9700   -3.9600   -0.8400 ho        1 MOL      0.312137
     80 H33        -3.7970   -6.7080    0.0030 hc        1 MOL      0.114909
     81 H34        -2.1800   -7.5250   -0.3140 hc        1 MOL      0.114909
     82 H35        -2.8290   -7.2940    1.3440 hc        1 MOL      0.114909
     83 N9         -0.4310   -3.6750    2.3730 n         1 MOL     -0.650995
     84 C26         0.7290   -2.7860    2.3460 c3        1 MOL      0.072111
     85 C27         1.5470   -3.0510    1.0540 c         1 MOL      0.503954
     86 O15         1.7490   -4.2210    0.6470 o         1 MOL     -0.578114
     87 C28         1.5120   -2.8440    3.6690 c3        1 MOL      0.090018
     88 C29         0.8170   -2.0710    4.7810 c3        1 MOL      0.075056
     89 C30         3.0240   -2.3980    3.5860 c3        1 MOL     -0.133291
     90 C31         1.4050   -2.1900    6.1710 c3        1 MOL     -0.105811
     91 H36        -0.1800   -4.5470    2.8180 hn        1 MOL      0.301592
     92 H37         0.4400   -1.7330    2.3310 h1        1 MOL     -0.020488
     93 H38         1.5730   -3.8970    3.9630 hc        1 MOL     -0.000552
     94 H39        -0.2060   -2.4250    4.9690 hc        1 MOL     -0.004871
     95 H40         0.7190   -1.0120    4.5370 hc        1 MOL     -0.004871
     96 H41         3.5990   -2.6570    2.6960 hc        1 MOL      0.015593
     97 H42         3.0010   -1.3040    3.5160 hc        1 MOL      0.015593
     98 H43         3.5920   -2.6740    4.4690 hc        1 MOL      0.015593
     99 H44         2.2850   -1.5420    6.2460 hc        1 MOL      0.018268
    100 H45         0.6850   -1.8610    6.9190 hc        1 MOL      0.018268
    101 H46         1.7010   -3.1930    6.4650 hc        1 MOL      0.018268
    102 N10         2.0660   -2.0290    0.5140 n         1 MOL     -0.311074
    103 C32         2.8060   -2.0470   -0.8030 c3        1 MOL      0.025169
    104 C33         4.1510   -1.3940   -0.7730 c         1 MOL      0.563059
    105 O16         4.4360   -0.6660    0.1940 o         1 MOL     -0.451035
    106 C34         1.9600   -1.3230   -1.8890 c3        1 MOL     -0.361549
    107 C35         0.5340   -1.8680   -2.0890 c         1 MOL      0.870192
    108 O17        -0.4440   -1.5020   -1.4060 o         1 MOL     -0.715182
    109 O18         0.3480   -2.5590   -3.1200 o         1 MOL     -0.715182
    110 H47         1.8560   -1.1420    0.9650 hn        1 MOL      0.314275
    111 H48         3.0580   -3.0640   -1.1080 h1        1 MOL      0.073083
    112 H49         2.5060   -1.4420   -2.8310 hc        1 MOL      0.086388
    113 H50         1.8930   -0.2460   -1.8190 hc        1 MOL      0.086388
    114 N11         5.1260   -1.7650   -1.6950 n         1 MOL     -0.652513
    115 C36         6.5470   -1.3170   -1.5410 c3        1 MOL      0.411902
    116 C37         6.8280    0.1870   -1.2050 c         1 MOL      0.279037
    117 O19         7.5740    0.3600   -0.2950 o         1 MOL     -0.498453
    118 C38         7.3650   -1.6340   -2.7570 c3        1 MOL     -0.156100
    119 C39         8.8900   -1.6510   -2.6050 ca        1 MOL      0.114342
    120 C40         9.4060   -2.4620   -1.5600 ca        1 MOL     -0.163104
    121 C41         9.7800   -0.9930   -3.4490 ca        1 MOL     -0.163104
    122 C42        10.7740   -2.5460   -1.3260 ca        1 MOL     -0.169942
    123 C43        11.1810   -1.0940   -3.2190 ca        1 MOL     -0.169942
    124 C44        11.6120   -1.7620   -2.0890 ca        1 MOL     -0.002530
    125 H51         4.7820   -2.4390   -2.3680 hn        1 MOL      0.336314
    126 H52         6.9190   -2.0110   -0.7900 h1        1 MOL      0.029708
    127 H53         7.1010   -0.9980   -3.6020 hc        1 MOL      0.038281
    128 H54         7.1370   -2.6540   -3.0520 hc        1 MOL      0.038281
    129 H55         8.7910   -3.0410   -0.8940 ha        1 MOL      0.121780
    130 H56         9.3930   -0.3240   -4.1970 ha        1 MOL      0.121780
    131 H57        11.2490   -3.1250   -0.5430 ha        1 MOL      0.122536
    132 H58        11.9310   -0.5830   -3.8170 ha        1 MOL      0.122536
    133 H59        12.6900   -1.7770   -2.0140 ha        1 MOL      0.057231
    134 N12         6.2310    1.2080   -1.7680 n         1 MOL     -0.069301
    135 C45         6.3300    2.6340   -1.2520 c3        1 MOL      0.067581
    136 C46         5.7370    2.7960    0.1280 c         1 MOL      0.374460
    137 O20         6.2590    3.6400    0.8930 o         1 MOL     -0.525910
    138 C47         5.6840    3.5530   -2.3360 c3        1 MOL     -0.216025
    139 C48         4.6580    2.5800   -2.9480 c3        1 MOL     -0.017899
    140 C49         5.3580    1.2010   -2.9320 c3        1 MOL     -0.023725
    141 H60         7.3570    2.9690   -1.1160 h1        1 MOL      0.060018
    142 H61         5.2100    4.4170   -1.8640 hc        1 MOL      0.088435
    143 H62         6.3810    3.8830   -3.1110 hc        1 MOL      0.088435
    144 H63         3.7960    2.5140   -2.2750 hc        1 MOL      0.046625
    145 H64         4.1970    2.8040   -3.9120 hc        1 MOL      0.046625
    146 H65         4.7300    0.3090   -2.9940 h1        1 MOL      0.019996
    147 H66         6.0050    1.1200   -3.8100 h1        1 MOL      0.019996
    148 N13         4.6390    2.1500    0.5000 n         1 MOL     -0.168794
    149 C50         4.0350    2.2620    1.8160 c3        1 MOL     -0.117779
    150 C51         4.8510    1.5680    2.9070 c         1 MOL      0.485940
    151 O21         4.9880    2.0830    3.9850 o         1 MOL     -0.552058
    152 C52         2.6070    1.5830    1.6940 c3        1 MOL      0.070331
    153 C53         1.6980    2.1590    0.6460 c3        1 MOL      0.029811
    154 C54         0.3620    1.4410    0.5800 c         1 MOL      0.534914
    155 O22        -0.4980    1.7850   -0.2120 o         1 MOL     -0.648719
    156 O23         0.1920    0.4330    1.2330 o         1 MOL     -0.648719
    157 H67         4.3380    1.4200   -0.1230 hn        1 MOL      0.191950
    158 H68         3.8890    3.2920    2.1350 h1        1 MOL      0.109208
    159 H69         2.1660    1.8090    2.6730 hc        1 MOL     -0.010942
    160 H70         2.8010    0.5220    1.5500 hc        1 MOL     -0.010942
    161 H71         2.1600    2.2240   -0.3450 hc        1 MOL      0.001226
    162 H72         1.4600    3.1990    0.8370 hc        1 MOL      0.001226
    163 N14         5.5510    0.4520    2.5290 n         1 MOL     -0.036537
    164 C55         6.5430   -0.2100    3.3180 c3        1 MOL     -0.223873
    165 H73         6.6890    0.3360    4.2500 h1        1 MOL      0.077057
    166 H74         6.2130   -1.2250    3.5410 h1        1 MOL      0.077057
    167 H75         7.4830   -0.2450    2.7680 h1        1 MOL      0.077057
    168 H76         5.4870    0.2310    1.5460 hn        1 MOL      0.082068
    169 Ca1        -2.2640   -0.1930   -0.1260 Ca        1 MOL      1.592211
    170 O24        -1.8590    0.1380    2.7790 oh        1 MOL     -0.810609
    171 H77        -1.9060    0.3070    3.7210 ho        1 MOL      0.389882
    172 H78        -0.9200    0.1330    2.5770 ho        1 MOL      0.389882
    173 O25        -4.7120   -0.5600    1.0120 oh        1 MOL     -0.810609
    174 H79        -4.6690    0.3780    0.8220 ho        1 MOL      0.389882
    175 H80        -5.1430   -0.6130    1.8640 ho        1 MOL      0.389882
@<TRIPOS>BOND
     1    1    2 1   
     2    1    4 1   
     3    1    5 1   
     4    1    6 1   
     5    2    3 2   
     6    2    7 1   
     7    7    8 1   
     8    7   15 1   
     9    8    9 1   
    10    8   11 1   
    11    8   16 1   
    12    9   10 2   
    13    9   19 1   
    14   11   12 1   
    15   11   17 1   
    16   11   18 1   
    17   12   13 1   
    18   12   14 1   
    19   19   20 1   
    20   19   24 1   
    21   20   21 1   
    22   20   23 1   
    23   20   25 1   
    24   21   22 2   
    25   21   29 1   
    26   23   26 1   
    27   23   27 1   
    28   23   28 1   
    29   29   30 1   
    30   29   37 1   
    31   30   31 1   
    32   30   33 1   
    33   30   38 1   
    34   31   32 2   
    35   31   41 1   
    36   33   34 1   
    37   33   39 1   
    38   33   40 1   
    39   34   35 1   
    40   34   36 1   
    41   41   42 1   
    42   41   45 1   
    43   42   43 1   
    44   42   46 1   
    45   42   47 1   
    46   43   44 2   
    47   43   48 1   
    48   48   49 1   
    49   48   56 1   
    50   49   50 1   
    51   49   52 1   
    52   49   57 1   
    53   50   51 2   
    54   50   62 1   
    55   52   53 1   
    56   52   58 1   
    57   52   59 1   
    58   53   54 1   
    59   53   55 2   
    60   54   60 1   
    61   54   61 1   
    62   62   63 1   
    63   62   66 1   
    64   63   64 1   
    65   63   67 1   
    66   63   68 1   
    67   64   65 2   
    68   64   69 1   
    69   69   70 1   
    70   69   76 1   
    71   70   71 1   
    72   70   73 1   
    73   70   77 1   
    74   71   72 2   
    75   71   83 1   
    76   73   74 1   
    77   73   75 1   
    78   73   78 1   
    79   74   80 1   
    80   74   81 1   
    81   74   82 1   
    82   75   79 1   
    83   83   84 1   
    84   83   91 1   
    85   84   85 1   
    86   84   87 1   
    87   84   92 1   
    88   85   86 2   
    89   85  102 1   
    90   87   88 1   
    91   87   89 1   
    92   87   93 1   
    93   88   90 1   
    94   88   94 1   
    95   88   95 1   
    96   89   96 1   
    97   89   97 1   
    98   89   98 1   
    99   90   99 1   
   100   90  100 1   
   101   90  101 1   
   102  102  103 1   
   103  102  110 1   
   104  103  104 1   
   105  103  106 1   
   106  103  111 1   
   107  104  105 2   
   108  104  114 1   
   109  106  107 1   
   110  106  112 1   
   111  106  113 1   
   112  107  108 1   
   113  107  109 1   
   114  114  115 1   
   115  114  125 1   
   116  115  116 1   
   117  115  118 1   
   118  115  126 1   
   119  116  117 2   
   120  116  134 1   
   121  118  119 1   
   122  118  127 1   
   123  118  128 1   
   124  119  120 ar  
   125  119  121 ar  
   126  120  122 ar  
   127  120  129 1   
   128  121  123 ar  
   129  121  130 1   
   130  122  124 ar  
   131  122  131 1   
   132  123  124 ar  
   133  123  132 1   
   134  124  133 1   
   135  134  135 1   
   136  134  140 1   
   137  135  136 1   
   138  135  138 1   
   139  135  141 1   
   140  136  137 2   
   141  136  148 1   
   142  138  139 1   
   143  138  142 1   
   144  138  143 1   
   145  139  140 1   
   146  139  144 1   
   147  139  145 1   
   148  140  146 1   
   149  140  147 1   
   150  148  149 1   
   151  148  157 1   
   152  149  150 1   
   153  149  152 1   
   154  149  158 1   
   155  150  151 2   
   156  150  163 1   
   157  152  153 1   
   158  152  159 1   
   159  152  160 1   
   160  153  154 1   
   161  153  161 1   
   162  153  162 1   
   163  154  155 1   
   164  154  156 1   
   165  163  164 1   
   166  163  168 1   
   167  164  165 1   
   168  164  166 1   
   169  164  167 1   
   170  170  171 1   
   171  170  172 1   
   172  173  174 1   
   173  173  175 1   
@<TRIPOS>SUBSTRUCTURE
     1 MOL         1 TEMP              0 ****  ****    0 ROOT
