@<TRIPOS>MOLECULE
MOL
  172   171     1     0     0
SMALL
resp


@<TRIPOS>ATOM
      1 C1         -0.1520    4.3920    5.4000 c3        1 MOL     -0.327069
      2 C2         -0.3990    3.8120    3.9460 c         1 MOL      0.687382
      3 O1          0.3680    4.1130    2.9930 o         1 MOL     -0.566709
      4 H1         -0.5840    3.7170    6.1380 hc        1 MOL      0.079832
      5 H2          0.9200    4.4860    5.5780 hc        1 MOL      0.079832
      6 H3         -0.6220    5.3720    5.4850 hc        1 MOL      0.079832
      7 N1         -1.3840    2.9090    3.8320 n         1 MOL     -0.636819
      8 C3         -2.0040    2.4970    2.5480 c3        1 MOL      0.065744
      9 C4         -2.5370    3.6900    1.7870 c         1 MOL      0.714727
     10 O2         -3.2460    4.5520    2.3250 o         1 MOL     -0.629696
     11 C5         -3.2260    1.5640    2.8750 c3        1 MOL     -0.172322
     12 C6         -3.7490    0.9400    1.5780 c         1 MOL      0.761249
     13 O3         -4.8350    0.3500    1.5360 o         1 MOL     -0.702499
     14 O4         -3.1570    1.1710    0.4850 o         1 MOL     -0.702499
     15 H4         -1.9260    2.6360    4.6450 hn        1 MOL      0.344286
     16 H5         -1.3090    1.8500    2.0220 h1        1 MOL      0.066022
     17 H6         -3.9000    2.2190    3.4240 hc        1 MOL      0.028869
     18 H7         -2.9370    0.7890    3.5890 hc        1 MOL      0.028869
     19 N2         -2.0420    3.8820    0.5730 n         1 MOL     -0.490036
     20 C7         -2.2110    5.0550   -0.2560 c3        1 MOL      0.268827
     21 C8         -3.2440    4.8900   -1.3880 c         1 MOL      0.230926
     22 O5         -3.6870    5.9280   -1.9600 o         1 MOL     -0.537086
     23 C9         -0.8410    5.4230   -0.8530 c3        1 MOL     -0.361674
     24 H8         -1.3750    3.1870    0.2680 hn        1 MOL      0.342095
     25 H9         -2.6080    5.8170    0.4210 h1        1 MOL      0.031870
     26 H10        -0.9640    6.4470   -1.2210 hc        1 MOL      0.095942
     27 H11        -0.0780    5.3760   -0.0870 hc        1 MOL      0.095942
     28 H12        -0.5770    4.6640   -1.6010 hc        1 MOL      0.095942
     29 N3         -3.5540    3.6550   -1.8000 n         1 MOL      0.036680
     30 C10        -4.6400    3.4150   -2.8270 c3        1 MOL     -0.232642
     31 C11        -5.8790    2.8310   -2.1240 c         1 MOL      0.542324
     32 O6         -6.9040    2.5140   -2.7700 o         1 MOL     -0.559373
     33 C12        -4.2390    2.6330   -4.1370 c3        1 MOL      0.086016
     34 C13        -3.5580    1.2870   -3.8690 c         1 MOL      0.627486
     35 O7         -3.4790    0.8060   -2.7570 o         1 MOL     -0.699400
     36 O8         -3.0850    0.7070   -4.8740 o         1 MOL     -0.699400
     37 H13        -3.1110    2.8500   -1.3900 hn        1 MOL      0.086293
     38 H14        -5.0430    4.3870   -3.0970 h1        1 MOL      0.117208
     39 H15        -3.5460    3.2010   -4.7460 hc        1 MOL     -0.003022
     40 H16        -5.0320    2.4290   -4.8600 hc        1 MOL     -0.003022
     41 N4         -5.9380    2.7110   -0.7890 n         1 MOL     -0.272341
     42 C14        -7.0520    2.2370    0.0080 c3        1 MOL     -0.294086
     43 C15        -7.5230    0.8440   -0.4620 c         1 MOL      0.554270
     44 O9         -8.6760    0.4620   -0.2830 o         1 MOL     -0.600064
     45 H17        -5.0740    2.7630   -0.2720 hn        1 MOL      0.195963
     46 H18        -7.9220    2.8660   -0.1590 h1        1 MOL      0.143753
     47 H19        -6.7120    2.2100    1.0480 h1        1 MOL      0.143753
     48 N5         -6.6920   -0.0070   -1.0590 n         1 MOL     -0.157283
     49 C16        -6.9430   -1.4090   -1.4580 c3        1 MOL      0.003027
     50 C17        -6.9270   -2.2920   -0.1220 c         1 MOL      0.449732
     51 O10        -7.5430   -3.3750   -0.1590 o         1 MOL     -0.604826
     52 C18        -5.8520   -1.7380   -2.4990 c3        1 MOL     -0.272283
     53 C19        -4.6690   -2.4790   -1.8750 c         1 MOL      0.648554
     54 N6         -4.6000   -3.7960   -1.9870 n         1 MOL     -0.710393
     55 O11        -3.9220   -1.9730   -1.0300 o         1 MOL     -0.584797
     56 H20        -5.7630    0.3320   -1.3020 hn        1 MOL      0.119924
     57 H21        -7.9430   -1.4730   -1.8890 h1        1 MOL      0.106445
     58 H22        -5.4690   -0.8350   -2.9660 hc        1 MOL      0.111575
     59 H23        -6.2550   -2.4440   -3.2370 hc        1 MOL      0.111575
     60 H24        -5.2550   -4.3720   -2.4910 hn        1 MOL      0.342287
     61 H25        -3.8670   -4.2390   -1.4450 hn        1 MOL      0.342287
     62 N7         -6.3720   -1.9340    1.0010 n         1 MOL     -0.168008
     63 C20        -6.3420   -2.7980    2.2090 c3        1 MOL     -0.099792
     64 C21        -5.0690   -3.6450    2.3000 c         1 MOL      0.461832
     65 O12        -5.0120   -4.3830    3.3000 o         1 MOL     -0.571198
     66 H26        -5.8300   -1.0720    0.9910 hn        1 MOL      0.179016
     67 H27        -7.2500   -3.3900    2.3070 h1        1 MOL      0.099490
     68 H28        -6.4080   -2.1440    3.0810 h1        1 MOL      0.099490
     69 N8         -4.0570   -3.4940    1.4260 n         1 MOL     -0.195213
     70 C22        -2.7730   -4.2690    1.5700 c3        1 MOL     -0.005689
     71 C23        -1.6160   -3.2080    1.4750 c         1 MOL      0.514904
     72 O13        -1.7430   -2.1390    0.8220 o         1 MOL     -0.573677
     73 C24        -2.5660   -5.4010    0.5640 c3        1 MOL      0.230027
     74 C25        -3.8790   -6.1790    0.3490 c3        1 MOL     -0.302773
     75 O14        -2.2240   -5.1520   -0.7870 oh        1 MOL     -0.619496
     76 H29        -4.1510   -2.7560    0.7460 hn        1 MOL      0.201591
     77 H30        -2.7590   -4.7750    2.5340 h1        1 MOL      0.075925
     78 H31        -1.8340   -6.1140    0.9490 h1        1 MOL      0.038255
     79 H32        -2.2130   -5.9410   -1.3410 ho        1 MOL      0.424085
     80 H33        -4.6570   -5.6570   -0.2040 hc        1 MOL      0.076992
     81 H34        -3.6970   -7.0370   -0.3100 hc        1 MOL      0.076992
     82 H35        -4.2380   -6.6170    1.2760 hc        1 MOL      0.076992
     83 N9         -0.3980   -3.5710    1.9380 n         1 MOL     -0.477444
     84 C26         0.7440   -2.6330    1.8750 c3        1 MOL      0.070545
     85 C27         1.7100   -3.0580    0.7420 c         1 MOL      0.631732
     86 O15         2.1690   -4.1590    0.6740 o         1 MOL     -0.589367
     87 C28         1.4050   -2.5430    3.2260 c3        1 MOL     -0.003201
     88 C29         0.4850   -1.8800    4.2790 c3        1 MOL      0.025819
     89 C30         2.8500   -2.0890    3.3520 c3        1 MOL     -0.107755
     90 C31         0.0020   -0.4450    3.8820 c3        1 MOL      0.043902
     91 H36        -0.2860   -4.4820    2.3390 hn        1 MOL      0.284888
     92 H37         0.4050   -1.6490    1.5490 h1        1 MOL      0.145146
     93 H38         1.4450   -3.5920    3.5270 hc        1 MOL     -0.006953
     94 H39         0.9650   -1.7890    5.2510 hc        1 MOL     -0.012539
     95 H40        -0.3290   -2.5290    4.5940 hc        1 MOL     -0.012539
     96 H41         2.8290   -1.1390    2.8080 hc        1 MOL      0.020262
     97 H42         3.1840   -2.0220    4.3920 hc        1 MOL      0.020262
     98 H43         3.4340   -2.8600    2.8530 hc        1 MOL      0.020262
     99 H44        -0.4690   -0.0110    4.7680 hc        1 MOL     -0.018691
    100 H45         0.9270    0.1230    3.7130 hc        1 MOL     -0.018691
    101 H46        -0.6930   -0.4860    3.0470 hc        1 MOL     -0.018691
    102 N10         1.9070   -2.1180   -0.1740 n         1 MOL     -0.398204
    103 C32         2.9280   -2.0580   -1.2830 c3        1 MOL     -0.096361
    104 C33         4.3040   -1.6530   -0.8110 c         1 MOL      0.643104
    105 O16         4.3670   -0.9870    0.2660 o         1 MOL     -0.495612
    106 C34         2.5530   -1.1550   -2.4810 c3        1 MOL     -0.207359
    107 C35         1.1320   -1.4320   -2.8820 c         1 MOL      0.754518
    108 O17         0.8460   -2.4830   -3.5020 o         1 MOL     -0.683391
    109 O18         0.3340   -0.4440   -2.6700 o         1 MOL     -0.683391
    110 H47         1.4660   -1.2430    0.0420 hn        1 MOL      0.201057
    111 H48         3.0660   -3.0680   -1.6650 h1        1 MOL      0.083510
    112 H49         3.1680   -1.3730   -3.3630 hc        1 MOL      0.071877
    113 H50         2.7680   -0.1660   -2.0710 hc        1 MOL      0.071877
    114 N11         5.4140   -1.9810   -1.4110 n         1 MOL     -0.624530
    115 C36         6.7950   -1.5760   -1.0260 c3        1 MOL      0.316587
    116 C37         6.9210   -0.0470   -0.7920 c         1 MOL      0.239067
    117 O19         7.5060    0.2280    0.2760 o         1 MOL     -0.434612
    118 C38         7.8200   -2.0770   -2.0520 c3        1 MOL     -0.070180
    119 C39         9.2550   -1.8290   -1.7350 ca        1 MOL      0.039701
    120 C40         9.8160   -2.4420   -0.5870 ca        1 MOL     -0.191662
    121 C41         9.9800   -0.8370   -2.3900 ca        1 MOL     -0.191662
    122 C42        11.0800   -2.1730   -0.1220 ca        1 MOL     -0.050287
    123 C43        11.2680   -0.4780   -1.9210 ca        1 MOL     -0.050287
    124 C44        11.8150   -1.1810   -0.7950 ca        1 MOL     -0.150506
    125 H51         5.3000   -2.4600   -2.2930 hn        1 MOL      0.278196
    126 H52         6.8980   -1.9760   -0.0230 h1        1 MOL      0.043811
    127 H53         7.5820   -1.6880   -3.0480 hc        1 MOL      0.031965
    128 H54         7.6440   -3.1610   -2.0930 hc        1 MOL      0.031965
    129 H55         9.1700   -3.1240   -0.0480 ha        1 MOL      0.126371
    130 H56         9.5490   -0.2890   -3.2230 ha        1 MOL      0.126371
    131 H57        11.4000   -2.7790    0.7170 ha        1 MOL      0.098073
    132 H58        11.8960    0.1950   -2.4920 ha        1 MOL      0.098073
    133 H59        12.8280   -0.9530   -0.4980 ha        1 MOL      0.100966
    134 N12         6.3040    0.8520   -1.6530 n         1 MOL     -0.090535
    135 C45         6.3660    2.3110   -1.3530 c3        1 MOL      0.167787
    136 C46         5.9270    2.6850    0.0700 c         1 MOL      0.080504
    137 O20         6.5270    3.5360    0.7470 o         1 MOL     -0.456019
    138 C47         5.4630    3.0310   -2.3960 c3        1 MOL      0.183836
    139 C48         5.4330    1.9960   -3.5470 c3        1 MOL     -0.277337
    140 C49         5.6760    0.6680   -2.9780 c3        1 MOL      0.021914
    141 H60         7.3400    2.7410   -1.5570 h1        1 MOL      0.008031
    142 H61         4.4690    3.1300   -1.9450 hc        1 MOL     -0.029708
    143 H62         5.8880    3.9880   -2.6910 hc        1 MOL     -0.029708
    144 H63         4.4440    1.9960   -3.9930 hc        1 MOL      0.081891
    145 H64         6.2750    2.1710   -4.2260 hc        1 MOL      0.081891
    146 H65         4.6820    0.2200   -2.9100 h1        1 MOL      0.034721
    147 H66         6.4100    0.2030   -3.6360 h1        1 MOL      0.034721
    148 N13         4.7570    2.1610    0.4610 n         1 MOL      0.010770
    149 C50         3.9070    2.4390    1.6730 c3        1 MOL     -0.216052
    150 C51         4.5750    1.8060    2.9340 c         1 MOL      0.491878
    151 O21         4.7250    2.5610    3.8790 o         1 MOL     -0.576992
    152 C52         2.5210    1.8770    1.5520 c3        1 MOL      0.020031
    153 C53         1.8160    2.3810    0.2670 c3        1 MOL     -0.075810
    154 C54         0.5040    1.5380   -0.0060 c         1 MOL      0.531249
    155 O22         0.3570    0.3850    0.4300 o         1 MOL     -0.693733
    156 O23        -0.3970    1.9910   -0.8420 o         1 MOL     -0.693733
    157 H67         4.2900    1.5610   -0.1940 hn        1 MOL      0.269820
    158 H68         3.8030    3.5280    1.6800 h1        1 MOL      0.129944
    159 H69         2.0030    2.0530    2.4950 hc        1 MOL      0.055712
    160 H70         2.5550    0.7820    1.5540 hc        1 MOL      0.055712
    161 H71         2.4200    2.1790   -0.6200 hc        1 MOL      0.030105
    162 H72         1.5760    3.4390    0.2570 hc        1 MOL      0.030105
    163 N14         5.1580    0.6430    2.8850 n         1 MOL     -0.077635
    164 C55         6.0980   -0.0270    3.8920 c3        1 MOL     -0.290191
    165 H73         5.5190   -0.6680    4.5560 h1        1 MOL      0.111386
    166 H74         6.8340   -0.6270    3.3580 h1        1 MOL      0.111386
    167 H75         6.6080    0.7370    4.4790 h1        1 MOL      0.111386
    168 H76         5.0430    0.1340    2.0240 hn        1 MOL      0.129210
    169 Ca1        -1.7450   -0.2880   -1.0720 Ca        1 MOL      1.714673
    170 O24        -1.3390   -2.7330   -1.9290 oh        1 MOL     -0.934761
    171 H77        -1.6470   -3.6020   -1.6710 ho        1 MOL      0.424906
    172 H78        -0.4370   -2.8660   -2.2150 ho        1 MOL      0.424906
@<TRIPOS>BOND
     1    1    2 1   
     2    1    4 1   
     3    1    5 1   
     4    1    6 1   
     5    2    3 2   
     6    2    7 1   
     7    7    8 1   
     8    7   15 1   
     9    8    9 1   
    10    8   11 1   
    11    8   16 1   
    12    9   10 2   
    13    9   19 1   
    14   11   12 1   
    15   11   17 1   
    16   11   18 1   
    17   12   13 1   
    18   12   14 1   
    19   19   20 1   
    20   19   24 1   
    21   20   21 1   
    22   20   23 1   
    23   20   25 1   
    24   21   22 2   
    25   21   29 1   
    26   23   26 1   
    27   23   27 1   
    28   23   28 1   
    29   29   30 1   
    30   29   37 1   
    31   30   31 1   
    32   30   33 1   
    33   30   38 1   
    34   31   32 2   
    35   31   41 1   
    36   33   34 1   
    37   33   39 1   
    38   33   40 1   
    39   34   35 1   
    40   34   36 1   
    41   41   42 1   
    42   41   45 1   
    43   42   43 1   
    44   42   46 1   
    45   42   47 1   
    46   43   44 2   
    47   43   48 1   
    48   48   49 1   
    49   48   56 1   
    50   49   50 1   
    51   49   52 1   
    52   49   57 1   
    53   50   51 2   
    54   50   62 1   
    55   52   53 1   
    56   52   58 1   
    57   52   59 1   
    58   53   54 1   
    59   53   55 2   
    60   54   60 1   
    61   54   61 1   
    62   62   63 1   
    63   62   66 1   
    64   63   64 1   
    65   63   67 1   
    66   63   68 1   
    67   64   65 2   
    68   64   69 1   
    69   69   70 1   
    70   69   76 1   
    71   70   71 1   
    72   70   73 1   
    73   70   77 1   
    74   71   72 2   
    75   71   83 1   
    76   73   74 1   
    77   73   75 1   
    78   73   78 1   
    79   74   80 1   
    80   74   81 1   
    81   74   82 1   
    82   75   79 1   
    83   83   84 1   
    84   83   91 1   
    85   84   85 1   
    86   84   87 1   
    87   84   92 1   
    88   85   86 2   
    89   85  102 1   
    90   87   88 1   
    91   87   89 1   
    92   87   93 1   
    93   88   90 1   
    94   88   94 1   
    95   88   95 1   
    96   89   96 1   
    97   89   97 1   
    98   89   98 1   
    99   90   99 1   
   100   90  100 1   
   101   90  101 1   
   102  102  103 1   
   103  102  110 1   
   104  103  104 1   
   105  103  106 1   
   106  103  111 1   
   107  104  105 2   
   108  104  114 1   
   109  106  107 1   
   110  106  112 1   
   111  106  113 1   
   112  107  108 1   
   113  107  109 1   
   114  114  115 1   
   115  114  125 1   
   116  115  116 1   
   117  115  118 1   
   118  115  126 1   
   119  116  117 2   
   120  116  134 1   
   121  118  119 1   
   122  118  127 1   
   123  118  128 1   
   124  119  120 ar  
   125  119  121 ar  
   126  120  122 ar  
   127  120  129 1   
   128  121  123 ar  
   129  121  130 1   
   130  122  124 ar  
   131  122  131 1   
   132  123  124 ar  
   133  123  132 1   
   134  124  133 1   
   135  134  135 1   
   136  134  140 1   
   137  135  136 1   
   138  135  138 1   
   139  135  141 1   
   140  136  137 2   
   141  136  148 1   
   142  138  139 1   
   143  138  142 1   
   144  138  143 1   
   145  139  140 1   
   146  139  144 1   
   147  139  145 1   
   148  140  146 1   
   149  140  147 1   
   150  148  149 1   
   151  148  157 1   
   152  149  150 1   
   153  149  152 1   
   154  149  158 1   
   155  150  151 2   
   156  150  163 1   
   157  152  153 1   
   158  152  159 1   
   159  152  160 1   
   160  153  154 1   
   161  153  161 1   
   162  153  162 1   
   163  154  155 1   
   164  154  156 1   
   165  163  164 1   
   166  163  168 1   
   167  164  165 1   
   168  164  166 1   
   169  164  167 1   
   170  170  171 1   
   171  170  172 1   
@<TRIPOS>SUBSTRUCTURE
     1 MOL         1 TEMP              0 ****  ****    0 ROOT
