@<TRIPOS>MOLECULE
MOL
  186   183     1     0     0
SMALL
resp


@<TRIPOS>ATOM
      1 C1          0.9410   -1.3080    6.1170 c3        1 MOL     -0.352721
      2 C2          1.1650   -1.3380    4.6210 c         1 MOL      0.677757
      3 O1          0.2300   -1.8890    3.9480 o         1 MOL     -0.588871
      4 H1          0.8060   -2.3250    6.4840 hc        1 MOL      0.086719
      5 H2          1.8060   -0.8590    6.6050 hc        1 MOL      0.086719
      6 H3          0.0510   -0.7200    6.3400 hc        1 MOL      0.086719
      7 N1          2.3830   -0.9990    4.1690 n         1 MOL     -0.545825
      8 C3          2.8810   -1.1910    2.8070 c3        1 MOL      0.252993
      9 C4          3.0860   -2.6880    2.6410 c         1 MOL      0.419551
     10 O2          3.9780   -3.2180    3.2320 o         1 MOL     -0.581090
     11 C5          4.0850   -0.2630    2.5630 c3        1 MOL      0.071261
     12 C6          4.6740   -0.4530    1.2320 c         1 MOL      0.769998
     13 O3          3.9750   -0.6960    0.2430 o         1 MOL     -0.713869
     14 O4          5.9480   -0.4060    1.2510 o         1 MOL     -0.713869
     15 H4          2.9590   -0.6010    4.8960 hn        1 MOL      0.304085
     16 H5          2.0860   -0.8530    2.1420 h1        1 MOL     -0.036427
     17 H6          4.8370   -0.4810    3.3310 hc        1 MOL     -0.065093
     18 H7          3.8360    0.7800    2.7140 hc        1 MOL     -0.065093
     19 N2          2.2310   -3.4030    1.8560 n         1 MOL      0.034346
     20 C7          2.2890   -4.8500    1.6180 c3        1 MOL     -0.075785
     21 C8          2.5880   -5.3270    0.1780 c         1 MOL      0.273974
     22 O5          2.6050   -6.5130   -0.0530 o         1 MOL     -0.521069
     23 C9          1.1730   -5.6680    2.3360 c3        1 MOL      0.379120
     24 C10        -0.1750   -5.3240    1.6880 c3        1 MOL      0.152063
     25 C11         1.0190   -5.4620    3.8380 c3        1 MOL     -0.519977
     26 C12        -1.4780   -6.1100    2.0950 c3        1 MOL     -0.394803
     27 H8          1.5800   -2.8310    1.3230 hn        1 MOL      0.086279
     28 H9          3.1540   -5.2340    2.1550 h1        1 MOL      0.058313
     29 H10         1.3390   -6.7190    2.1090 hc        1 MOL     -0.079910
     30 H11         0.0080   -5.5580    0.6380 hc        1 MOL     -0.007637
     31 H12        -0.3150   -4.2410    1.7160 hc        1 MOL     -0.007637
     32 H13         0.2910   -6.1950    4.1740 hc        1 MOL      0.101563
     33 H14         2.0110   -5.7350    4.2130 hc        1 MOL      0.101563
     34 H15         0.7380   -4.4630    4.1440 hc        1 MOL      0.101563
     35 H16        -1.1920   -6.9960    2.6530 hc        1 MOL      0.091706
     36 H17        -2.0050   -5.4240    2.7600 hc        1 MOL      0.091706
     37 H18        -2.1370   -6.2340    1.2280 hc        1 MOL      0.091706
     38 N3          2.7920   -4.4210   -0.8040 n         1 MOL     -0.067407
     39 C13         3.5430   -4.6580   -2.0000 c3        1 MOL      0.145545
     40 C14         4.9160   -4.0290   -1.9870 c         1 MOL      0.246083
     41 O6          5.6100   -4.0890   -2.9860 o         1 MOL     -0.464803
     42 C15         2.7050   -4.3720   -3.2370 c3        1 MOL     -0.262909
     43 C16         2.2020   -2.9170   -3.2300 c         1 MOL      0.894291
     44 O7          1.2340   -2.6050   -3.9640 o         1 MOL     -0.749545
     45 O8          2.8790   -2.0080   -2.6610 o         1 MOL     -0.749545
     46 H19         2.5020   -3.4890   -0.5500 hn        1 MOL     -0.003844
     47 H20         3.6910   -5.7360   -1.9900 h1        1 MOL      0.037532
     48 H21         1.8190   -5.0080   -3.2290 hc        1 MOL      0.050507
     49 H22         3.3830   -4.5010   -4.0830 hc        1 MOL      0.050507
     50 N4          5.3410   -3.3960   -0.8980 n         1 MOL      0.089151
     51 C17         6.7290   -2.9670   -0.6750 c3        1 MOL     -0.489139
     52 C18         7.1420   -1.8420   -1.6930 c         1 MOL      0.851226
     53 O9          7.7200   -2.2030   -2.6880 o         1 MOL     -0.596008
     54 H23         4.7700   -3.5250   -0.0720 hn        1 MOL      0.133333
     55 H24         7.3930   -3.8250   -0.8550 h1        1 MOL      0.125927
     56 H25         6.8520   -2.6040    0.3400 h1        1 MOL      0.125927
     57 N5          6.9450   -0.5420   -1.3200 n         1 MOL     -0.509640
     58 C19         7.3890    0.6760   -1.9270 c3        1 MOL      0.070751
     59 C20         7.5120    1.9940   -1.0490 c         1 MOL      0.455876
     60 O10         7.9310    3.0610   -1.4930 o         1 MOL     -0.561697
     61 C21         6.4510    0.9980   -3.1240 c3        1 MOL     -0.169649
     62 C22         4.9920    1.0470   -2.6920 c         1 MOL      0.706109
     63 O11         4.1310    0.4130   -3.3360 o         1 MOL     -0.714281
     64 O12         4.6120    1.8160   -1.7670 o         1 MOL     -0.714281
     65 H26         6.6350   -0.4790   -0.3690 hn        1 MOL      0.136519
     66 H27         8.4080    0.4390   -2.2550 h1        1 MOL      0.027452
     67 H28         6.5080    0.1720   -3.8320 hc        1 MOL      0.044008
     68 H29         6.9040    1.8670   -3.6120 hc        1 MOL      0.044008
     69 N6          7.2990    1.8310    0.2390 n         1 MOL     -0.222945
     70 C23         7.4950    2.8100    1.2550 c3        1 MOL     -0.224469
     71 C24         6.1610    3.5270    1.5670 c         1 MOL      0.583112
     72 O13         6.2310    4.4740    2.3610 o         1 MOL     -0.607084
     73 H30         7.0050    0.9030    0.5000 hn        1 MOL      0.281092
     74 H31         8.3030    3.4610    0.9360 h1        1 MOL      0.107732
     75 H32         7.6980    2.3880    2.2430 h1        1 MOL      0.107732
     76 N7          4.9640    3.1760    1.0030 n         1 MOL     -0.311054
     77 C25         3.8010    3.9910    1.1990 c3        1 MOL      0.036235
     78 C26         2.6100    3.0020    1.0830 c         1 MOL      0.469483
     79 O14         2.7180    1.9260    0.5030 o         1 MOL     -0.603304
     80 C27         3.5850    5.0740    0.1310 c3        1 MOL      0.088037
     81 C28         4.6220    6.1600   -0.0150 c3        1 MOL     -0.340167
     82 C29         4.2410    7.1060   -1.1280 c         1 MOL      0.654812
     83 N8          4.5650    6.8030   -2.3770 n         1 MOL     -0.780144
     84 O15         3.7470    8.2280   -0.8480 o         1 MOL     -0.590688
     85 H33         5.0600    2.5600    0.2190 hn        1 MOL      0.236567
     86 H34         3.7090    4.4160    2.1980 h1        1 MOL      0.030741
     87 H35         2.5490    5.3680    0.2960 hc        1 MOL      0.007632
     88 H36         3.5600    4.5990   -0.8540 hc        1 MOL      0.007632
     89 H37         5.5680    5.6780   -0.2720 hc        1 MOL      0.116536
     90 H38         4.6610    6.7870    0.8810 hc        1 MOL      0.116536
     91 H39         5.0820    5.9430   -2.4970 hn        1 MOL      0.365760
     92 H40         4.2900    7.3790   -3.1540 hn        1 MOL      0.365760
     93 N9          1.4830    3.4620    1.6510 n         1 MOL     -0.271225
     94 C30         0.2490    2.7400    1.7410 c3        1 MOL      0.074808
     95 C31        -0.7590    3.3210    0.7510 c         1 MOL      0.423084
     96 O16        -0.9170    4.5140    0.6770 o         1 MOL     -0.608356
     97 C32        -0.2830    2.7990    3.2000 c3        1 MOL      0.168079
     98 C33        -1.0180    1.4810    3.3730 c3        1 MOL     -0.319234
     99 C34         0.7400    2.8250    4.3500 c3        1 MOL     -0.319234
    100 H41         1.5610    4.3640    2.0840 hn        1 MOL      0.226135
    101 H42         0.5420    1.7130    1.5110 h1        1 MOL      0.143279
    102 H43        -0.9110    3.6770    3.3200 hc        1 MOL     -0.006357
    103 H44        -1.5340    1.4270    4.3320 hc        1 MOL      0.066621
    104 H45        -1.8220    1.4510    2.6320 hc        1 MOL      0.066621
    105 H46        -0.3610    0.6090    3.2930 hc        1 MOL      0.066621
    106 H47         1.2210    1.8510    4.2480 hc        1 MOL      0.066621
    107 H48         1.3410    3.7180    4.2220 hc        1 MOL      0.066621
    108 H49         0.2750    2.9790    5.3260 hc        1 MOL      0.066621
    109 N10        -1.4020    2.5300   -0.0440 n         1 MOL     -0.006664
    110 C35        -2.6370    2.9490   -0.7770 c3        1 MOL      0.015874
    111 C36        -3.9900    2.3500   -0.2550 c         1 MOL      0.446514
    112 O17        -4.0000    1.4800    0.6630 o         1 MOL     -0.436470
    113 C37        -2.4980    2.6070   -2.3180 c3        1 MOL     -0.380487
    114 C38        -2.9970    1.1490   -2.5900 c         1 MOL      0.631093
    115 N11        -2.1430    0.2060   -2.4310 n         1 MOL     -0.736478
    116 O18        -4.0860    0.8620   -2.9220 o         1 MOL     -0.559152
    117 H50        -1.0650    1.5730   -0.0760 hn        1 MOL     -0.001940
    118 H51        -2.7240    4.0350   -0.6890 h1        1 MOL      0.081752
    119 H52        -1.4730    2.7050   -2.6880 hc        1 MOL      0.121912
    120 H53        -3.1400    3.2040   -2.9720 hc        1 MOL      0.121912
    121 H54        -1.2360    0.4660   -2.0520 hn        1 MOL      0.403556
    122 H55        -2.3940   -0.7490   -2.6160 hn        1 MOL      0.403556
    123 N12        -5.0990    2.8400   -0.8110 n         1 MOL     -0.491781
    124 C39        -6.4600    2.4830   -0.3640 c3        1 MOL      0.179329
    125 C40        -6.7580    0.9800   -0.1200 c         1 MOL      0.639973
    126 O19        -7.3190    0.6420    0.9220 o         1 MOL     -0.578862
    127 C41        -7.4990    3.0240   -1.3420 c3        1 MOL     -0.198924
    128 C42        -8.9760    2.7720   -1.0400 ca        1 MOL      0.009401
    129 C43        -9.5810    3.6390   -0.0840 ca        1 MOL     -0.204453
    130 C44        -9.6430    1.5210   -1.3920 ca        1 MOL     -0.204453
    131 C45       -10.8120    3.3340    0.4920 ca        1 MOL     -0.171952
    132 C46       -10.9350    1.3550   -0.9770 ca        1 MOL     -0.171952
    133 C47       -11.5430    2.2890   -0.1120 ca        1 MOL      0.319387
    134 O20       -12.8590    2.0880    0.1590 oh        1 MOL     -0.570867
    135 H56        -5.0550    3.4160   -1.6470 hn        1 MOL      0.293456
    136 H57        -6.6710    2.9700    0.5870 h1        1 MOL      0.030669
    137 H58        -7.3460    2.6790   -2.3640 hc        1 MOL      0.065044
    138 H59        -7.3020    4.0940   -1.3730 hc        1 MOL      0.065044
    139 H60        -8.9330    4.3950    0.3410 ha        1 MOL      0.146137
    140 H61        -9.1880    0.8060   -2.0490 ha        1 MOL      0.146137
    141 H62       -11.2460    3.9770    1.2480 ha        1 MOL      0.123640
    142 H63       -11.5210    0.5310   -1.3620 ha        1 MOL      0.123640
    143 H64       -13.2160    1.2220   -0.0790 ho        1 MOL      0.404917
    144 N13        -6.4160    0.0920   -1.0770 n         1 MOL     -0.095028
    145 C48        -6.6590   -1.2820   -0.8070 c3        1 MOL     -0.053890
    146 C49        -5.6370   -1.8980    0.2260 c         1 MOL      0.375481
    147 O21        -5.8110   -2.9510    0.7760 o         1 MOL     -0.506918
    148 C50        -6.5360   -2.0240   -2.1430 c3        1 MOL      0.227445
    149 C51        -7.2160   -3.3970   -2.1470 c3        1 MOL     -0.181330
    150 C52        -6.8990   -4.1950   -3.3730 c         1 MOL      0.695710
    151 O22        -5.7880   -4.8070   -3.5580 o         1 MOL     -0.747570
    152 O23        -7.8060   -4.2440   -4.2500 o         1 MOL     -0.747570
    153 H65        -5.8800    0.4010   -1.8710 hn        1 MOL      0.069039
    154 H66        -7.6610   -1.4680   -0.4030 h1        1 MOL      0.052902
    155 H67        -5.5090   -2.1970   -2.4690 hc        1 MOL     -0.044413
    156 H68        -7.0660   -1.4390   -2.8920 hc        1 MOL     -0.044413
    157 H69        -8.3020   -3.3540   -2.1070 hc        1 MOL     -0.000996
    158 H70        -6.8630   -3.9990   -1.3080 hc        1 MOL     -0.000996
    159 N14        -4.4930   -1.2300    0.4280 n         1 MOL     -0.100260
    160 C53        -3.6500   -1.6550    1.5570 c3        1 MOL     -0.261390
    161 C54        -4.1890   -1.0920    2.9300 c         1 MOL      0.460800
    162 O24        -3.9830   -1.6730    3.9920 o         1 MOL     -0.554474
    163 C55        -2.2140   -1.2070    1.2860 c3        1 MOL      0.184864
    164 C56        -1.3960   -1.8610    0.1850 c3        1 MOL     -0.020878
    165 C57        -0.0680   -1.1160   -0.1340 c         1 MOL      0.643282
    166 O25         1.0130   -1.7130   -0.2210 o         1 MOL     -0.700122
    167 O26        -0.1100    0.1100   -0.3770 o         1 MOL     -0.700122
    168 H71        -4.2110   -0.3230    0.0800 hn        1 MOL      0.094815
    169 H72        -3.5310   -2.7380    1.5510 h1        1 MOL      0.177445
    170 H73        -1.7110   -1.2560    2.2550 hc        1 MOL      0.011168
    171 H74        -2.0730   -0.1370    1.1780 hc        1 MOL      0.011168
    172 H75        -1.9980   -1.7300   -0.7150 hc        1 MOL     -0.018022
    173 H76        -1.1890   -2.9110    0.4040 hc        1 MOL     -0.018022
    174 N15        -4.9690   -0.0020    2.8660 n         1 MOL      0.065449
    175 C58        -5.6400    0.5240    3.9820 c3        1 MOL     -0.271175
    176 H77        -5.8480   -0.2770    4.6920 h1        1 MOL      0.078760
    177 H78        -5.0160    1.2790    4.4600 h1        1 MOL      0.078760
    178 H79        -6.5780    0.9770    3.6620 h1        1 MOL      0.078760
    179 H80        -5.3260    0.3140    1.9780 hn        1 MOL      0.019849
    180 Ca1         2.2980    0.1510   -1.4580 Ca        1 MOL      1.770736
    181 O27         1.6650    2.7080   -2.2980 oh        1 MOL     -0.865513
    182 H81         1.9270    3.5770   -2.0040 ho        1 MOL      0.401347
    183 H82         1.8460    2.7190   -3.2430 ho        1 MOL      0.401347
    184 O28         0.5560   -0.0470   -3.5300 oh        1 MOL     -0.865513
    185 H83         0.8530   -0.8800   -3.8970 ho        1 MOL      0.401347
    186 H84        -0.0750    0.2930   -4.1730 ho        1 MOL      0.401347
@<TRIPOS>BOND
     1    1    2 1   
     2    1    4 1   
     3    1    5 1   
     4    1    6 1   
     5    2    3 2   
     6    2    7 1   
     7    7    8 1   
     8    7   15 1   
     9    8    9 1   
    10    8   11 1   
    11    8   16 1   
    12    9   10 2   
    13    9   19 1   
    14   11   12 1   
    15   11   17 1   
    16   11   18 1   
    17   12   13 1   
    18   12   14 1   
    19   19   20 1   
    20   19   27 1   
    21   20   21 1   
    22   20   23 1   
    23   20   28 1   
    24   21   22 2   
    25   21   38 1   
    26   23   24 1   
    27   23   25 1   
    28   23   29 1   
    29   24   26 1   
    30   24   30 1   
    31   24   31 1   
    32   25   32 1   
    33   25   33 1   
    34   25   34 1   
    35   26   35 1   
    36   26   36 1   
    37   26   37 1   
    38   38   39 1   
    39   38   46 1   
    40   39   40 1   
    41   39   42 1   
    42   39   47 1   
    43   40   41 2   
    44   40   50 1   
    45   42   43 1   
    46   42   48 1   
    47   42   49 1   
    48   43   44 1   
    49   43   45 1   
    50   50   51 1   
    51   50   54 1   
    52   51   52 1   
    53   51   55 1   
    54   51   56 1   
    55   52   53 2   
    56   52   57 1   
    57   57   58 1   
    58   57   65 1   
    59   58   59 1   
    60   58   61 1   
    61   58   66 1   
    62   59   60 2   
    63   59   69 1   
    64   61   62 1   
    65   61   67 1   
    66   61   68 1   
    67   62   63 1   
    68   62   64 1   
    69   69   70 1   
    70   69   73 1   
    71   70   71 1   
    72   70   74 1   
    73   70   75 1   
    74   71   72 2   
    75   71   76 1   
    76   76   77 1   
    77   76   85 1   
    78   77   78 1   
    79   77   80 1   
    80   77   86 1   
    81   78   79 2   
    82   78   93 1   
    83   80   81 1   
    84   80   87 1   
    85   80   88 1   
    86   81   82 1   
    87   81   89 1   
    88   81   90 1   
    89   82   83 1   
    90   82   84 2   
    91   83   91 1   
    92   83   92 1   
    93   93   94 1   
    94   93  100 1   
    95   94   95 1   
    96   94   97 1   
    97   94  101 1   
    98   95   96 2   
    99   95  109 1   
   100   97   98 1   
   101   97   99 1   
   102   97  102 1   
   103   98  103 1   
   104   98  104 1   
   105   98  105 1   
   106   99  106 1   
   107   99  107 1   
   108   99  108 1   
   109  109  110 1   
   110  109  117 1   
   111  110  111 1   
   112  110  113 1   
   113  110  118 1   
   114  111  112 2   
   115  111  123 1   
   116  113  114 1   
   117  113  119 1   
   118  113  120 1   
   119  114  115 1   
   120  114  116 2   
   121  115  121 1   
   122  115  122 1   
   123  123  124 1   
   124  123  135 1   
   125  124  125 1   
   126  124  127 1   
   127  124  136 1   
   128  125  126 2   
   129  125  144 1   
   130  127  128 1   
   131  127  137 1   
   132  127  138 1   
   133  128  129 ar  
   134  128  130 ar  
   135  129  131 ar  
   136  129  139 1   
   137  130  132 ar  
   138  130  140 1   
   139  131  133 ar  
   140  131  141 1   
   141  132  133 ar  
   142  132  142 1   
   143  133  134 1   
   144  134  143 1   
   145  144  145 1   
   146  144  153 1   
   147  145  146 1   
   148  145  148 1   
   149  145  154 1   
   150  146  147 2   
   151  146  159 1   
   152  148  149 1   
   153  148  155 1   
   154  148  156 1   
   155  149  150 1   
   156  149  157 1   
   157  149  158 1   
   158  150  151 1   
   159  150  152 1   
   160  159  160 1   
   161  159  168 1   
   162  160  161 1   
   163  160  163 1   
   164  160  169 1   
   165  161  162 2   
   166  161  174 1   
   167  163  164 1   
   168  163  170 1   
   169  163  171 1   
   170  164  165 1   
   171  164  172 1   
   172  164  173 1   
   173  165  166 1   
   174  165  167 1   
   175  174  175 1   
   176  174  179 1   
   177  175  176 1   
   178  175  177 1   
   179  175  178 1   
   180  181  182 1   
   181  181  183 1   
   182  184  185 1   
   183  184  186 1   
@<TRIPOS>SUBSTRUCTURE
     1 MOL         1 TEMP              0 ****  ****    0 ROOT
