@<TRIPOS>MOLECULE
MOL
  175   173     1     0     0
SMALL
resp


@<TRIPOS>ATOM
      1 C1          0.5030    3.7370    5.4700 c3        1 MOL     -0.345542
      2 C2         -0.1250    3.8170    4.1090 c         1 MOL      0.681743
      3 O1          0.4760    4.3370    3.1900 o         1 MOL     -0.524830
      4 H1          0.4540    4.7150    5.9500 hc        1 MOL      0.080867
      5 H2         -0.0330    3.0070    6.0760 hc        1 MOL      0.080867
      6 H3          1.5460    3.4330    5.3720 hc        1 MOL      0.080867
      7 N1         -1.3690    3.4570    3.9420 n         1 MOL     -0.580264
      8 C3         -2.0520    3.3970    2.6520 c3        1 MOL      0.119884
      9 C4         -1.7950    4.6180    1.6590 c         1 MOL      0.479243
     10 O2         -1.7600    5.7940    2.1350 o         1 MOL     -0.551173
     11 C5         -3.4410    2.9720    2.8610 c3        1 MOL     -0.209860
     12 C6         -4.0000    2.2190    1.6540 c         1 MOL      0.609817
     13 O3         -5.0370    1.5570    1.9350 o         1 MOL     -0.659661
     14 O4         -3.3340    2.0310    0.6320 o         1 MOL     -0.659661
     15 H4         -1.9430    3.1760    4.7270 hn        1 MOL      0.302533
     16 H5         -1.5340    2.5920    2.1430 h1        1 MOL      0.090581
     17 H6         -4.0220    3.8740    3.0280 hc        1 MOL      0.059628
     18 H7         -3.5240    2.3900    3.7810 hc        1 MOL      0.059628
     19 N2         -1.7260    4.4370    0.3430 n         1 MOL     -0.413010
     20 C7         -1.8150    5.4960   -0.6790 c3        1 MOL      0.156308
     21 C8         -2.9560    5.2430   -1.7180 c         1 MOL      0.573347
     22 O5         -3.1350    6.0460   -2.6300 o         1 MOL     -0.577175
     23 C9         -0.4290    5.6490   -1.3320 c3        1 MOL     -0.156314
     24 H8         -1.5900    3.5170   -0.0410 hn        1 MOL      0.382381
     25 H9         -2.1700    6.4220   -0.2220 h1        1 MOL      0.024639
     26 H10        -0.0230    4.6680   -1.5520 hc        1 MOL      0.036865
     27 H11        -0.5390    6.1980   -2.2640 hc        1 MOL      0.036865
     28 H12         0.2710    6.1630   -0.6830 hc        1 MOL      0.036865
     29 N3         -3.7120    4.1400   -1.5900 n         1 MOL     -0.534852
     30 C10        -4.8290    3.6520   -2.4940 c3        1 MOL      0.317776
     31 C11        -6.1430    3.0710   -1.9130 c         1 MOL      0.266594
     32 O6         -7.2230    3.4860   -2.3130 o         1 MOL     -0.540384
     33 C12        -4.3280    2.6600   -3.5520 c3        1 MOL     -0.091418
     34 C13        -3.3820    1.5320   -3.0420 c         1 MOL      0.509435
     35 O7         -2.2530    1.3860   -3.5160 o         1 MOL     -0.588475
     36 O8         -3.8060    0.7560   -2.0980 o         1 MOL     -0.588475
     37 H13        -3.4680    3.4690   -0.8700 hn        1 MOL      0.221795
     38 H14        -5.1530    4.4470   -3.1630 h1        1 MOL      0.014837
     39 H15        -3.8150    3.3390   -4.2220 hc        1 MOL      0.027801
     40 H16        -5.1700    2.2880   -4.1450 hc        1 MOL      0.027801
     41 N4         -6.0960    2.0270   -1.0360 n         1 MOL      0.023901
     42 C14        -7.3370    1.3340   -0.5110 c3        1 MOL     -0.213522
     43 C15        -7.5300   -0.0050   -1.1980 c         1 MOL      0.552109
     44 O9         -8.5370   -0.6420   -1.1200 o         1 MOL     -0.580182
     45 H17        -5.2240    1.5260   -0.9930 hn        1 MOL     -0.063829
     46 H18        -8.2220    1.9540   -0.6290 h1        1 MOL      0.111949
     47 H19        -7.0870    1.1830    0.5400 h1        1 MOL      0.111949
     48 N5         -6.4050   -0.5840   -1.7660 n         1 MOL     -0.184560
     49 C16        -6.3740   -1.9820   -2.2100 c3        1 MOL     -0.272595
     50 C17        -6.3320   -3.0120   -1.0460 c         1 MOL      0.564666
     51 O10        -6.2910   -4.1790   -1.3610 o         1 MOL     -0.565024
     52 C18        -5.0740   -2.2730   -3.1090 c3        1 MOL      0.046126
     53 C19        -3.7380   -2.1480   -2.4500 c         1 MOL      0.339077
     54 N6         -2.6890   -1.9430   -3.1810 n         1 MOL     -0.498719
     55 O11        -3.5490   -2.1810   -1.2710 o         1 MOL     -0.081885
     56 H20        -5.5410   -0.0860   -1.9280 hn        1 MOL      0.120606
     57 H21        -7.2370   -2.1690   -2.8410 h1        1 MOL      0.143038
     58 H22        -5.2100   -1.6470   -3.9920 hc        1 MOL      0.030317
     59 H23        -5.1040   -3.2520   -3.6010 hc        1 MOL      0.030317
     60 H24        -2.7100   -2.2420   -4.1470 hn        1 MOL      0.278681
     61 H25        -1.7980   -1.9440   -2.7110 hn        1 MOL      0.278681
     62 N7         -6.3980   -2.5690    0.1960 n         1 MOL     -0.218822
     63 C20        -6.4180   -3.5100    1.3220 c3        1 MOL     -0.334761
     64 C21        -5.1290   -4.2670    1.6360 c         1 MOL      0.523326
     65 O12        -5.1810   -5.2280    2.4190 o         1 MOL     -0.576320
     66 H26        -6.3030   -1.5610    0.2850 hn        1 MOL      0.268970
     67 H27        -7.1950   -4.2630    1.1480 h1        1 MOL      0.144362
     68 H28        -6.6480   -3.0630    2.2860 h1        1 MOL      0.144362
     69 N8         -4.0050   -3.7980    1.0760 n         1 MOL      0.066317
     70 C22        -2.6410   -4.4180    1.2210 c3        1 MOL     -0.355298
     71 C23        -1.4850   -3.4290    1.4910 c         1 MOL      0.618555
     72 O13        -1.6060   -2.2590    1.1760 o         1 MOL     -0.650324
     73 C24        -2.2920   -5.2750    0.0070 c3        1 MOL      0.778095
     74 C25        -3.2220   -6.5490   -0.2300 c3        1 MOL     -0.456089
     75 O14        -2.2050   -4.4980   -1.1710 oh        1 MOL     -0.665663
     76 H29        -4.1110   -3.0280    0.4320 hn        1 MOL     -0.205826
     77 H30        -2.7590   -5.0590    2.0960 h1        1 MOL      0.076681
     78 H31        -1.3800   -5.8470    0.1750 h1        1 MOL     -0.078508
     79 H32        -2.7810   -3.7520   -1.0010 ho        1 MOL      0.250544
     80 H33        -4.2020   -6.3200   -0.6470 hc        1 MOL      0.091892
     81 H34        -2.6110   -7.1870   -0.8690 hc        1 MOL      0.091892
     82 H35        -3.3590   -6.9820    0.7500 hc        1 MOL      0.091892
     83 N9         -0.3860   -3.8890    2.0540 n         1 MOL     -0.494273
     84 C26         0.8020   -3.0110    2.1360 c3        1 MOL      0.030373
     85 C27         1.6230   -3.1740    0.8810 c         1 MOL      0.358969
     86 O15         2.0500   -4.2920    0.5630 o         1 MOL     -0.552745
     87 C28         1.6640   -3.0530    3.4030 c3        1 MOL      0.317216
     88 C29         0.7210   -2.8210    4.6080 c3        1 MOL      0.052293
     89 C30         2.6720   -1.9510    3.4180 c3        1 MOL     -0.334753
     90 C31         1.4500   -2.8310    6.0150 c3        1 MOL     -0.224875
     91 H36        -0.4060   -4.8050    2.4850 hn        1 MOL      0.301871
     92 H37         0.4940   -1.9650    2.0590 h1        1 MOL      0.082346
     93 H38         2.1010   -4.0480    3.4450 hc        1 MOL     -0.052750
     94 H39         0.0210   -3.6660    4.5870 hc        1 MOL     -0.015564
     95 H40         0.1700   -1.8960    4.4840 hc        1 MOL     -0.015564
     96 H41         3.2310   -1.8150    2.4940 hc        1 MOL      0.069867
     97 H42         2.1140   -1.0430    3.6410 hc        1 MOL      0.069867
     98 H43         3.4970   -2.1800    4.0940 hc        1 MOL      0.069867
     99 H44         2.1810   -2.0300    6.1310 hc        1 MOL      0.045143
    100 H45         0.6450   -2.6120    6.7190 hc        1 MOL      0.045143
    101 H46         1.9190   -3.7970    6.1980 hc        1 MOL      0.045143
    102 N10         1.7920   -2.1290    0.0060 n         1 MOL     -0.027923
    103 C32         2.6830   -2.1510   -1.1320 c3        1 MOL      0.000507
    104 C33         4.0890   -1.6630   -0.7900 c         1 MOL      0.457688
    105 O16         4.3900   -1.1520    0.3100 o         1 MOL     -0.393305
    106 C34         1.9750   -1.2330   -2.1490 c3        1 MOL     -0.054276
    107 C35         0.4760   -1.5250   -2.4800 c         1 MOL      0.586127
    108 O17         0.3080   -1.8450   -3.6510 o         1 MOL     -0.610414
    109 O18        -0.4100   -1.2730   -1.6210 o         1 MOL     -0.610414
    110 H47         1.3010   -1.2610    0.1760 hn        1 MOL     -0.000982
    111 H48         2.7610   -3.1700   -1.4940 h1        1 MOL      0.066265
    112 H49         2.5330   -1.2910   -3.0780 hc        1 MOL      0.011314
    113 H50         2.0750   -0.1920   -1.8130 hc        1 MOL      0.011314
    114 N11         5.0070   -1.8310   -1.7820 n         1 MOL     -0.671792
    115 C36         6.4240   -1.6200   -1.5080 c3        1 MOL      0.550489
    116 C37         6.6290   -0.1490   -0.9760 c         1 MOL      0.193110
    117 O19         7.2560   -0.0120    0.0750 o         1 MOL     -0.472671
    118 C38         7.3950   -1.9500   -2.7020 c3        1 MOL     -0.382403
    119 C39         8.8590   -1.7550   -2.4310 ca        1 MOL      0.256184
    120 C40         9.5770   -0.7110   -3.0110 ca        1 MOL     -0.253752
    121 C41         9.5570   -2.6580   -1.5850 ca        1 MOL     -0.253752
    122 C42        10.9750   -0.5020   -2.7140 ca        1 MOL     -0.043129
    123 C43        10.8680   -2.4430   -1.2530 ca        1 MOL     -0.043129
    124 C44        11.5890   -1.3700   -1.8280 ca        1 MOL     -0.188889
    125 H51         4.7560   -2.2600   -2.6590 hn        1 MOL      0.336498
    126 H52         6.6650   -2.3320   -0.7310 h1        1 MOL      0.002851
    127 H53         7.1600   -1.2880   -3.5420 hc        1 MOL      0.080016
    128 H54         7.2970   -2.9940   -2.9740 hc        1 MOL      0.080016
    129 H55         9.1580    0.0660   -3.6280 ha        1 MOL      0.136576
    130 H56         9.1470   -3.6080   -1.2790 ha        1 MOL      0.136576
    131 H57        11.5070    0.3550   -3.0990 ha        1 MOL      0.101869
    132 H58        11.3160   -3.1030   -0.5270 ha        1 MOL      0.101869
    133 H59        12.5930   -1.2780   -1.4400 ha        1 MOL      0.114709
    134 N12         6.0660    0.8980   -1.6040 n         1 MOL      0.016951
    135 C45         6.4380    2.2170   -1.1470 c3        1 MOL      0.089674
    136 C46         5.8410    2.6240    0.2270 c         1 MOL      0.111418
    137 O20         6.3740    3.4180    1.0380 o         1 MOL     -0.459518
    138 C47         5.9510    3.1610   -2.1940 c3        1 MOL     -0.109217
    139 C48         5.8880    2.4230   -3.5110 c3        1 MOL     -0.150702
    140 C49         5.3160    1.0970   -2.8580 c3        1 MOL     -0.022926
    141 H60         7.5200    2.2640   -1.1580 h1        1 MOL      0.082585
    142 H61         4.9830    3.6370   -2.0480 hc        1 MOL      0.064470
    143 H62         6.7980    3.8390   -2.3150 hc        1 MOL      0.064470
    144 H63         5.1750    2.8310   -4.2370 hc        1 MOL      0.066984
    145 H64         6.8770    2.2200   -3.9070 hc        1 MOL      0.066984
    146 H65         4.2450    1.1060   -2.6690 h1        1 MOL      0.047822
    147 H66         5.6050    0.3130   -3.5670 h1        1 MOL      0.047822
    148 N13         4.6370    2.0880    0.5050 n         1 MOL      0.009520
    149 C50         3.9520    2.1950    1.7960 c3        1 MOL     -0.034379
    150 C51         4.6830    1.4810    2.9120 c         1 MOL      0.304280
    151 O21         4.7780    1.9970    4.0320 o         1 MOL     -0.522189
    152 C52         2.6090    1.4830    1.6090 c3        1 MOL     -0.144536
    153 C53         1.7490    2.0570    0.4060 c3        1 MOL     -0.247601
    154 C54         0.4090    1.3390    0.2470 c         1 MOL      0.623840
    155 O22        -0.4480    1.7100   -0.6060 o         1 MOL     -0.682770
    156 O23         0.0570    0.4500    1.0330 o         1 MOL     -0.682770
    157 H67         4.2620    1.5750   -0.2730 hn        1 MOL      0.117807
    158 H68         3.6870    3.2400    1.9540 h1        1 MOL      0.102017
    159 H69         2.0080    1.5710    2.5210 hc        1 MOL      0.087279
    160 H70         2.8640    0.4210    1.4930 hc        1 MOL      0.087279
    161 H71         2.2910    1.8350   -0.5130 hc        1 MOL      0.108684
    162 H72         1.5810    3.1300    0.5140 hc        1 MOL      0.108684
    163 N14         5.4690    0.4600    2.5260 n         1 MOL      0.225746
    164 C55         6.2410   -0.2140    3.4120 c3        1 MOL     -0.166311
    165 H73         6.7110   -1.0610    2.9120 h1        1 MOL      0.041267
    166 H74         7.0120    0.4500    3.8020 h1        1 MOL      0.041267
    167 H75         5.6220   -0.5750    4.2330 h1        1 MOL      0.041267
    168 H76         5.4320    0.1080    1.5790 hn        1 MOL     -0.025491
    169 Ca1        -2.1720   -0.1360   -0.2540 Ca        1 MOL      1.585467
    170 O24        -2.0170    0.1840    2.6900 oh        1 MOL     -0.678224
    171 H77        -2.2000    0.2390    3.6290 ho        1 MOL      0.353075
    172 H78        -1.0670    0.2210    2.6130 ho        1 MOL      0.353075
    173 O25        -4.3150   -0.8160    1.1990 oh        1 MOL     -0.678224
    174 H79        -3.7710   -0.9440    1.9840 ho        1 MOL      0.353075
    175 H80        -4.6450    0.0690    1.2790 ho        1 MOL      0.353075
@<TRIPOS>BOND
     1    1    2 1   
     2    1    4 1   
     3    1    5 1   
     4    1    6 1   
     5    2    3 2   
     6    2    7 1   
     7    7    8 1   
     8    7   15 1   
     9    8    9 1   
    10    8   11 1   
    11    8   16 1   
    12    9   10 2   
    13    9   19 1   
    14   11   12 1   
    15   11   17 1   
    16   11   18 1   
    17   12   13 1   
    18   12   14 1   
    19   19   20 1   
    20   19   24 1   
    21   20   21 1   
    22   20   23 1   
    23   20   25 1   
    24   21   22 2   
    25   21   29 1   
    26   23   26 1   
    27   23   27 1   
    28   23   28 1   
    29   29   30 1   
    30   29   37 1   
    31   30   31 1   
    32   30   33 1   
    33   30   38 1   
    34   31   32 2   
    35   31   41 1   
    36   33   34 1   
    37   33   39 1   
    38   33   40 1   
    39   34   35 1   
    40   34   36 1   
    41   41   42 1   
    42   41   45 1   
    43   42   43 1   
    44   42   46 1   
    45   42   47 1   
    46   43   44 2   
    47   43   48 1   
    48   48   49 1   
    49   48   56 1   
    50   49   50 1   
    51   49   52 1   
    52   49   57 1   
    53   50   51 2   
    54   50   62 1   
    55   52   53 1   
    56   52   58 1   
    57   52   59 1   
    58   53   54 1   
    59   53   55 2   
    60   54   60 1   
    61   54   61 1   
    62   62   63 1   
    63   62   66 1   
    64   63   64 1   
    65   63   67 1   
    66   63   68 1   
    67   64   65 2   
    68   64   69 1   
    69   69   70 1   
    70   69   76 1   
    71   70   71 1   
    72   70   73 1   
    73   70   77 1   
    74   71   72 2   
    75   71   83 1   
    76   73   74 1   
    77   73   75 1   
    78   73   78 1   
    79   74   80 1   
    80   74   81 1   
    81   74   82 1   
    82   75   79 1   
    83   83   84 1   
    84   83   91 1   
    85   84   85 1   
    86   84   87 1   
    87   84   92 1   
    88   85   86 2   
    89   85  102 1   
    90   87   88 1   
    91   87   89 1   
    92   87   93 1   
    93   88   90 1   
    94   88   94 1   
    95   88   95 1   
    96   89   96 1   
    97   89   97 1   
    98   89   98 1   
    99   90   99 1   
   100   90  100 1   
   101   90  101 1   
   102  102  103 1   
   103  102  110 1   
   104  103  104 1   
   105  103  106 1   
   106  103  111 1   
   107  104  105 2   
   108  104  114 1   
   109  106  107 1   
   110  106  112 1   
   111  106  113 1   
   112  107  108 1   
   113  107  109 1   
   114  114  115 1   
   115  114  125 1   
   116  115  116 1   
   117  115  118 1   
   118  115  126 1   
   119  116  117 2   
   120  116  134 1   
   121  118  119 1   
   122  118  127 1   
   123  118  128 1   
   124  119  120 ar  
   125  119  121 ar  
   126  120  122 ar  
   127  120  129 1   
   128  121  123 ar  
   129  121  130 1   
   130  122  124 ar  
   131  122  131 1   
   132  123  124 ar  
   133  123  132 1   
   134  124  133 1   
   135  134  135 1   
   136  134  140 1   
   137  135  136 1   
   138  135  138 1   
   139  135  141 1   
   140  136  137 2   
   141  136  148 1   
   142  138  139 1   
   143  138  142 1   
   144  138  143 1   
   145  139  140 1   
   146  139  144 1   
   147  139  145 1   
   148  140  146 1   
   149  140  147 1   
   150  148  149 1   
   151  148  157 1   
   152  149  150 1   
   153  149  152 1   
   154  149  158 1   
   155  150  151 2   
   156  150  163 1   
   157  152  153 1   
   158  152  159 1   
   159  152  160 1   
   160  153  154 1   
   161  153  161 1   
   162  153  162 1   
   163  154  155 1   
   164  154  156 1   
   165  163  164 1   
   166  163  168 1   
   167  164  165 1   
   168  164  166 1   
   169  164  167 1   
   170  170  171 1   
   171  170  172 1   
   172  173  174 1   
   173  173  175 1   
@<TRIPOS>SUBSTRUCTURE
     1 MOL         1 TEMP              0 ****  ****    0 ROOT
