@<TRIPOS>MOLECULE
MOL
  189   185     1     0     0
SMALL
resp


@<TRIPOS>ATOM
      1 C1          0.1860   -3.9730    6.0290 c3        1 MOL     -0.323530
      2 C2          0.9640   -3.4760    4.7640 c         1 MOL      0.730432
      3 O1          1.1750   -2.3190    4.5970 o         1 MOL     -0.588052
      4 H1         -0.8210   -3.5560    6.0230 hc        1 MOL      0.076717
      5 H2          0.1280   -5.0610    6.0150 hc        1 MOL      0.076717
      6 H3          0.7090   -3.6480    6.9290 hc        1 MOL      0.076717
      7 N1          1.2650   -4.4130    3.8440 n         1 MOL     -0.658795
      8 C3          1.8720   -4.0510    2.5640 c3        1 MOL      0.470907
      9 C4          1.6800   -5.1510    1.4940 c         1 MOL      0.303898
     10 O2          2.0730   -6.3220    1.6460 o         1 MOL     -0.536282
     11 C5          3.3800   -3.7120    2.7000 c3        1 MOL     -0.431218
     12 C6          4.0400   -3.2700    1.4320 c         1 MOL      0.831802
     13 O3          5.1050   -3.7720    1.1220 o         1 MOL     -0.705034
     14 O4          3.6610   -2.3560    0.7290 o         1 MOL     -0.705034
     15 H4          0.8530   -5.3370    3.8950 hn        1 MOL      0.319502
     16 H5          1.4380   -3.1130    2.2130 h1        1 MOL     -0.098080
     17 H6          3.7870   -4.6390    3.0960 hc        1 MOL      0.076750
     18 H7          3.4590   -2.9120    3.4390 hc        1 MOL      0.076750
     19 N2          1.1600   -4.7170    0.3820 n         1 MOL     -0.016417
     20 C7          1.1440   -5.4940   -0.8240 c3        1 MOL     -0.074127
     21 C8          2.4330   -5.5030   -1.6350 c         1 MOL      0.578473
     22 O5          3.0190   -6.4840   -2.1320 o         1 MOL     -0.587148
     23 C9         -0.0840   -5.0220   -1.7450 c3        1 MOL      0.282978
     24 C10        -1.4000   -5.4790   -0.9640 c3        1 MOL     -0.064218
     25 C11        -0.0300   -5.6950   -3.1060 c3        1 MOL     -0.403505
     26 C12        -2.7510   -5.1100   -1.5020 c3        1 MOL     -0.178302
     27 H8          0.6040   -3.8670    0.4150 hn        1 MOL     -0.066614
     28 H9          0.8770   -6.5320   -0.5960 h1        1 MOL      0.014532
     29 H10         0.0200   -3.9470   -1.8700 hc        1 MOL      0.006355
     30 H11        -1.2650   -5.1260    0.0600 hc        1 MOL      0.018429
     31 H12        -1.3940   -6.5630   -0.8310 hc        1 MOL      0.018429
     32 H13        -0.8920   -5.3780   -3.6950 hc        1 MOL      0.088396
     33 H14         0.8340   -5.3760   -3.6910 hc        1 MOL      0.088396
     34 H15         0.0020   -6.7630   -2.8720 hc        1 MOL      0.088396
     35 H16        -3.0170   -4.0590   -1.4060 hc        1 MOL      0.055997
     36 H17        -2.8560   -5.4500   -2.5270 hc        1 MOL      0.055997
     37 H18        -3.4760   -5.5490   -0.8260 hc        1 MOL      0.055997
     38 N3          2.9720   -4.2720   -1.8480 n         1 MOL     -0.441823
     39 C13         3.8000   -3.9130   -3.0540 c3        1 MOL      0.040934
     40 C14         5.1730   -3.2020   -2.7700 c         1 MOL      0.461965
     41 O6          5.9560   -2.9650   -3.7360 o         1 MOL     -0.617363
     42 C15         3.0010   -2.9140   -3.8580 c3        1 MOL     -0.266884
     43 C16         2.4580   -1.7380   -3.0810 c         1 MOL      0.751699
     44 O7          2.8380   -1.5160   -1.9330 o         1 MOL     -0.704821
     45 O8          1.5730   -0.9780   -3.5900 o         1 MOL     -0.704821
     46 H19         2.5730   -3.4980   -1.3450 hn        1 MOL      0.397459
     47 H20         4.1260   -4.8080   -3.5760 h1        1 MOL      0.097264
     48 H21         2.0220   -3.3590   -4.0360 hc        1 MOL      0.067092
     49 H22         3.4300   -2.7120   -4.8500 hc        1 MOL      0.067092
     50 N4          5.5440   -2.9080   -1.5540 n         1 MOL     -0.184526
     51 C17         6.9920   -2.5920   -1.2990 c3        1 MOL     -0.041997
     52 C18         7.3720   -1.1190   -1.3940 c         1 MOL      0.513227
     53 O9          8.5790   -0.8980   -1.2180 o         1 MOL     -0.629842
     54 H23         4.8180   -2.8420   -0.8640 hn        1 MOL      0.097611
     55 H24         7.5730   -3.2110   -1.9850 h1        1 MOL      0.074074
     56 H25         7.3520   -2.8930   -0.3120 h1        1 MOL      0.074074
     57 N5          6.4850   -0.2070   -1.7300 n         1 MOL     -0.197960
     58 C19         6.8090    1.1640   -2.2400 c3        1 MOL     -0.181712
     59 C20         6.9900    2.2160   -1.1170 c         1 MOL      0.428819
     60 O10         7.4030    3.3780   -1.4080 o         1 MOL     -0.553066
     61 C21         5.6860    1.6810   -3.1860 c3        1 MOL     -0.134037
     62 C22         4.2670    1.6680   -2.6190 c         1 MOL      0.742643
     63 O11         4.0930    1.2900   -1.4170 o         1 MOL     -0.701290
     64 O12         3.3880    2.2040   -3.3780 o         1 MOL     -0.701290
     65 H26         5.5110   -0.4120   -1.8780 hn        1 MOL      0.210337
     66 H27         7.7030    1.1070   -2.8550 h1        1 MOL      0.152586
     67 H28         5.5260    1.0670   -4.0830 hc        1 MOL      0.054715
     68 H29         5.9700    2.6220   -3.6500 hc        1 MOL      0.054715
     69 N6          6.8870    1.9230    0.1770 n         1 MOL     -0.169132
     70 C23         7.1630    2.8790    1.2590 c3        1 MOL     -0.280259
     71 C24         6.0330    3.8970    1.6530 c         1 MOL      0.572475
     72 O13         6.2130    4.7270    2.5070 o         1 MOL     -0.568613
     73 H30         6.7600    0.9290    0.3540 hn        1 MOL      0.227250
     74 H31         8.0280    3.4680    0.9590 h1        1 MOL      0.121777
     75 H32         7.4220    2.3700    2.1830 h1        1 MOL      0.121777
     76 N7          4.8430    3.6510    1.0870 n         1 MOL     -0.371600
     77 C25         3.7000    4.4870    1.2560 c3        1 MOL      0.058770
     78 C26         2.5220    3.5950    1.4670 c         1 MOL      0.429749
     79 O14         2.4950    2.4410    1.0720 o         1 MOL     -0.478563
     80 C27         3.3690    5.3910    0.0120 c3        1 MOL      0.107535
     81 C28         4.3940    6.4680   -0.1010 c3        1 MOL     -0.265669
     82 C29         3.9510    7.3610   -1.2250 c         1 MOL      0.589259
     83 N8          4.4740    7.1030   -2.4580 n         1 MOL     -0.761786
     84 O15         3.1900    8.4030   -1.0510 o         1 MOL     -0.564876
     85 H33         4.6440    2.8340    0.5250 hn        1 MOL      0.264193
     86 H34         3.7550    5.1310    2.1350 h1        1 MOL      0.054428
     87 H35         2.4660    5.9750    0.1710 hc        1 MOL      0.016939
     88 H36         3.2990    4.7620   -0.8690 hc        1 MOL      0.016939
     89 H37         5.3690    6.0650   -0.3940 hc        1 MOL      0.097527
     90 H38         4.4460    7.0290    0.8330 hc        1 MOL      0.097527
     91 H39         4.8080    6.1600   -2.5990 hn        1 MOL      0.361059
     92 H40         4.1600    7.5780   -3.2880 hn        1 MOL      0.361059
     93 N9          1.4080    4.0300    2.0370 n         1 MOL     -0.478693
     94 C30         0.2340    3.2020    2.3850 c3        1 MOL      0.106825
     95 C31        -1.0010    3.6160    1.5460 c         1 MOL      0.419425
     96 O16        -1.4660    4.7880    1.4990 o         1 MOL     -0.561700
     97 C32        -0.0470    3.1410    3.9010 c3        1 MOL      0.246590
     98 C33        -0.5150    4.5260    4.5460 c3        1 MOL     -0.258740
     99 C34        -1.1970    2.1090    4.1350 c3        1 MOL     -0.258740
    100 H41         1.5210    4.8850    2.5740 hn        1 MOL      0.265665
    101 H42         0.4790    2.1890    2.0850 h1        1 MOL      0.062874
    102 H43         0.8170    2.8510    4.4930 hc        1 MOL     -0.022568
    103 H44        -0.6540    4.3520    5.6100 hc        1 MOL      0.050893
    104 H45         0.1230    5.4090    4.4530 hc        1 MOL      0.050893
    105 H46        -1.4950    4.7880    4.1600 hc        1 MOL      0.050893
    106 H47        -1.5010    2.3010    5.1620 hc        1 MOL      0.050893
    107 H48        -2.0890    2.2460    3.5230 hc        1 MOL      0.050893
    108 H49        -0.8080    1.0900    4.1350 hc        1 MOL      0.050893
    109 N10        -1.6110    2.5490    0.9300 n         1 MOL     -0.072360
    110 C35        -2.7410    2.4750    0.0480 c3        1 MOL      0.215670
    111 C36        -4.0950    2.0930    0.6910 c         1 MOL     -0.072152
    112 O17        -4.1480    1.3560    1.6330 o         1 MOL     -0.018290
    113 C37        -2.4180    1.5000   -1.1360 c3        1 MOL     -0.763474
    114 C38        -3.4430    1.5240   -2.2740 c         1 MOL      0.910172
    115 N11        -3.6350    2.6100   -3.0390 n         1 MOL     -0.891728
    116 O18        -4.3850    0.7450   -2.4140 o         1 MOL     -0.594574
    117 H50        -1.0830    1.6970    0.9400 hn        1 MOL      0.115130
    118 H51        -2.9150    3.4440   -0.4360 h1        1 MOL      0.027472
    119 H52        -2.2590    0.4710   -0.8170 hc        1 MOL      0.229615
    120 H53        -1.4020    1.6930   -1.5060 hc        1 MOL      0.229615
    121 H54        -3.0010    3.3840   -2.9060 hn        1 MOL      0.383479
    122 H55        -4.3510    2.5520   -3.7480 hn        1 MOL      0.383479
    123 N12        -5.1930    2.6180    0.1270 n         1 MOL     -0.131271
    124 C39        -6.5040    2.3580    0.7910 c3        1 MOL      0.161749
    125 C40        -6.7900    0.8090    1.0110 c         1 MOL      0.414906
    126 O19        -7.5030    0.4570    1.9340 o         1 MOL     -0.587482
    127 C41        -7.6840    3.0380    0.1610 c3        1 MOL     -0.349139
    128 C42        -7.7960    2.9880   -1.3750 ca        1 MOL      0.203574
    129 C43        -7.1070    3.9330   -2.0990 ca        1 MOL     -0.324098
    130 C44        -8.3650    1.8980   -2.0760 ca        1 MOL     -0.324098
    131 C45        -7.2170    3.9430   -3.4650 ca        1 MOL     -0.094107
    132 C46        -8.5740    1.9800   -3.4470 ca        1 MOL     -0.094107
    133 C47        -7.9680    3.0250   -4.1780 ca        1 MOL      0.182011
    134 O20        -7.9680    3.0500   -5.4990 oh        1 MOL     -0.389504
    135 H56        -5.2060    3.2250   -0.6870 hn        1 MOL      0.175718
    136 H57        -6.4690    2.7020    1.8330 h1        1 MOL      0.042110
    137 H58        -7.6400    4.0970    0.4380 hc        1 MOL      0.103631
    138 H59        -8.6080    2.5980    0.5150 hc        1 MOL      0.103631
    139 H60        -6.5110    4.6770   -1.5870 ha        1 MOL      0.157799
    140 H61        -8.8630    1.1200   -1.5140 ha        1 MOL      0.157799
    141 H62        -6.7330    4.7670   -3.9720 ha        1 MOL      0.106303
    142 H63        -9.2020    1.2350   -3.9250 ha        1 MOL      0.106303
    143 H64        -7.3970    3.7480   -5.8190 ho        1 MOL      0.311966
    144 N13        -6.3190   -0.0920    0.1690 n         1 MOL     -0.040402
    145 C48        -6.5550   -1.5180    0.3320 c3        1 MOL     -0.415275
    146 C49        -5.6440   -2.1480    1.3480 c         1 MOL      0.505313
    147 O21        -5.9030   -3.2600    1.8660 o         1 MOL     -0.552049
    148 C50        -6.5190   -2.3120   -0.9510 c3        1 MOL      0.076200
    149 C51        -7.3890   -1.8440   -2.0810 c3        1 MOL     -0.301321
    150 C52        -7.2620   -2.6970   -3.3430 c         1 MOL      0.689554
    151 O22        -7.1670   -2.2160   -4.5220 o         1 MOL     -0.725277
    152 O23        -7.2740   -3.9260   -3.1680 o         1 MOL     -0.725277
    153 H65        -5.9400    0.2230   -0.7110 hn        1 MOL      0.281455
    154 H66        -7.5760   -1.6320    0.7040 h1        1 MOL      0.177551
    155 H67        -6.7050   -3.3260   -0.6010 hc        1 MOL      0.036795
    156 H68        -5.5020   -2.1960   -1.3320 hc        1 MOL      0.036795
    157 H69        -7.1480   -0.8200   -2.3540 hc        1 MOL      0.086119
    158 H70        -8.4240   -1.6950   -1.7660 hc        1 MOL      0.086119
    159 N14        -4.5730   -1.5100    1.7210 n         1 MOL     -0.075378
    160 C53        -3.6860   -1.8120    2.8230 c3        1 MOL     -0.022942
    161 C54        -4.1670   -1.1810    4.1330 c         1 MOL      0.387072
    162 O24        -4.2490   -1.8710    5.1900 o         1 MOL     -0.532146
    163 C55        -2.2690   -1.3120    2.5730 c3        1 MOL     -0.127565
    164 C56        -1.6030   -1.9120    1.3780 c3        1 MOL      0.020362
    165 C57        -0.3570   -1.2260    0.8410 c         1 MOL      0.879334
    166 O25         0.4570   -1.8780    0.1120 o         1 MOL     -0.748071
    167 O26        -0.1910   -0.0030    0.8960 o         1 MOL     -0.748071
    168 H71        -4.4260   -0.6010    1.3180 hn        1 MOL      0.030698
    169 H72        -3.6940   -2.8850    2.9970 h1        1 MOL      0.071667
    170 H73        -1.5930   -1.4510    3.4230 hc        1 MOL      0.072242
    171 H74        -2.3180   -0.2410    2.3900 hc        1 MOL      0.072242
    172 H75        -2.2890   -1.9220    0.5330 hc        1 MOL     -0.001734
    173 H76        -1.3660   -2.9180    1.7010 hc        1 MOL     -0.001734
    174 N15        -4.6550    0.1260    4.1130 n         1 MOL     -0.057218
    175 C58        -4.9370    0.9120    5.2990 c3        1 MOL     -0.161663
    176 H77        -6.0100    1.0920    5.3670 h1        1 MOL      0.064513
    177 H78        -4.6020    0.3700    6.1840 h1        1 MOL      0.064513
    178 H79        -4.4130    1.8660    5.2360 h1        1 MOL      0.064513
    179 H80        -4.4700    0.6310    3.2500 hn        1 MOL     -0.034560
    180 Ca1         2.5000   -0.0930    0.2180 Ca        1 MOL      1.741639
    181 O27         2.0670   -0.1460    2.9800 oh        1 MOL     -0.945498
    182 O28         1.2410    1.1610   -2.0070 oh        1 MOL     -0.945498
    183 H81         1.7360   -0.8550    3.5160 ho        1 MOL      0.433598
    184 H82         1.7810    1.8050   -2.4730 ho        1 MOL      0.433598
    185 H83         2.7140    0.2910    3.5280 ho        1 MOL      0.433598
    186 H84         1.3530    0.3490   -2.4980 ho        1 MOL      0.433598
    187 O29         4.6100    0.4610    1.6190 oh        1 MOL     -0.945498
    188 H85         4.6220    1.0430    2.3770 ho        1 MOL      0.433598
    189 H86         5.3450   -0.1430    1.7640 ho        1 MOL      0.433598
@<TRIPOS>BOND
     1    1    2 1   
     2    1    4 1   
     3    1    5 1   
     4    1    6 1   
     5    2    3 2   
     6    2    7 1   
     7    7    8 1   
     8    7   15 1   
     9    8    9 1   
    10    8   11 1   
    11    8   16 1   
    12    9   10 2   
    13    9   19 1   
    14   11   12 1   
    15   11   17 1   
    16   11   18 1   
    17   12   13 1   
    18   12   14 1   
    19   19   20 1   
    20   19   27 1   
    21   20   21 1   
    22   20   23 1   
    23   20   28 1   
    24   21   22 2   
    25   21   38 1   
    26   23   24 1   
    27   23   25 1   
    28   23   29 1   
    29   24   26 1   
    30   24   30 1   
    31   24   31 1   
    32   25   32 1   
    33   25   33 1   
    34   25   34 1   
    35   26   35 1   
    36   26   36 1   
    37   26   37 1   
    38   38   39 1   
    39   38   46 1   
    40   39   40 1   
    41   39   42 1   
    42   39   47 1   
    43   40   41 2   
    44   40   50 1   
    45   42   43 1   
    46   42   48 1   
    47   42   49 1   
    48   43   44 1   
    49   43   45 1   
    50   50   51 1   
    51   50   54 1   
    52   51   52 1   
    53   51   55 1   
    54   51   56 1   
    55   52   53 2   
    56   52   57 1   
    57   57   58 1   
    58   57   65 1   
    59   58   59 1   
    60   58   61 1   
    61   58   66 1   
    62   59   60 2   
    63   59   69 1   
    64   61   62 1   
    65   61   67 1   
    66   61   68 1   
    67   62   63 1   
    68   62   64 1   
    69   69   70 1   
    70   69   73 1   
    71   70   71 1   
    72   70   74 1   
    73   70   75 1   
    74   71   72 2   
    75   71   76 1   
    76   76   77 1   
    77   76   85 1   
    78   77   78 1   
    79   77   80 1   
    80   77   86 1   
    81   78   79 2   
    82   78   93 1   
    83   80   81 1   
    84   80   87 1   
    85   80   88 1   
    86   81   82 1   
    87   81   89 1   
    88   81   90 1   
    89   82   83 1   
    90   82   84 2   
    91   83   91 1   
    92   83   92 1   
    93   93   94 1   
    94   93  100 1   
    95   94   95 1   
    96   94   97 1   
    97   94  101 1   
    98   95   96 2   
    99   95  109 1   
   100   97   98 1   
   101   97   99 1   
   102   97  102 1   
   103   98  103 1   
   104   98  104 1   
   105   98  105 1   
   106   99  106 1   
   107   99  107 1   
   108   99  108 1   
   109  109  110 1   
   110  109  117 1   
   111  110  111 1   
   112  110  113 1   
   113  110  118 1   
   114  111  112 2   
   115  111  123 1   
   116  113  114 1   
   117  113  119 1   
   118  113  120 1   
   119  114  115 1   
   120  114  116 2   
   121  115  121 1   
   122  115  122 1   
   123  123  124 1   
   124  123  135 1   
   125  124  125 1   
   126  124  127 1   
   127  124  136 1   
   128  125  126 2   
   129  125  144 1   
   130  127  128 1   
   131  127  137 1   
   132  127  138 1   
   133  128  129 ar  
   134  128  130 ar  
   135  129  131 ar  
   136  129  139 1   
   137  130  132 ar  
   138  130  140 1   
   139  131  133 ar  
   140  131  141 1   
   141  132  133 ar  
   142  132  142 1   
   143  133  134 1   
   144  134  143 1   
   145  144  145 1   
   146  144  153 1   
   147  145  146 1   
   148  145  148 1   
   149  145  154 1   
   150  146  147 2   
   151  146  159 1   
   152  148  149 1   
   153  148  155 1   
   154  148  156 1   
   155  149  150 1   
   156  149  157 1   
   157  149  158 1   
   158  150  151 1   
   159  150  152 1   
   160  159  160 1   
   161  159  168 1   
   162  160  161 1   
   163  160  163 1   
   164  160  169 1   
   165  161  162 2   
   166  161  174 1   
   167  163  164 1   
   168  163  170 1   
   169  163  171 1   
   170  164  165 1   
   171  164  172 1   
   172  164  173 1   
   173  165  166 1   
   174  165  167 1   
   175  174  175 1   
   176  174  179 1   
   177  175  176 1   
   178  175  177 1   
   179  175  178 1   
   180  181  183 1   
   181  181  185 1   
   182  182  184 1   
   183  182  186 1   
   184  187  188 1   
   185  187  189 1   
@<TRIPOS>SUBSTRUCTURE
     1 MOL         1 TEMP              0 ****  ****    0 ROOT
