@<TRIPOS>MOLECULE
MOL
  179   176     1     0     0
SMALL
resp


@<TRIPOS>ATOM
      1 C1          1.6050    2.7480    6.8360 c3        1 MOL     -0.386674
      2 C2          1.7220    2.4270    5.3180 c         1 MOL      0.724451
      3 O1          2.7290    2.3680    4.6440 o         1 MOL     -0.581145
      4 H1          0.5650    2.9600    7.0830 hc        1 MOL      0.101496
      5 H2          1.9480    1.8920    7.4170 hc        1 MOL      0.101496
      6 H3          2.2190    3.6170    7.0730 hc        1 MOL      0.101496
      7 N1          0.5980    2.3500    4.6420 n         1 MOL     -0.507171
      8 C3          0.4470    2.1220    3.1930 c3        1 MOL      0.005028
      9 C4          0.6550    3.4580    2.3530 c         1 MOL      0.731593
     10 O2          0.3390    4.4910    2.8430 o         1 MOL     -0.576779
     11 C5         -0.8800    1.3930    2.9200 c3        1 MOL     -0.216608
     12 C6         -1.1020    1.3410    1.3870 c         1 MOL      0.907617
     13 O3         -2.2060    1.3670    0.7950 o         1 MOL     -0.831056
     14 O4         -0.1220    1.2470    0.6170 o         1 MOL     -0.831056
     15 H4         -0.2840    2.4180    5.1400 hn        1 MOL      0.276233
     16 H5          1.2960    1.5260    2.8540 h1        1 MOL      0.048137
     17 H6         -1.6940    1.9440    3.3880 hc        1 MOL      0.051436
     18 H7         -0.9540    0.3620    3.2700 hc        1 MOL      0.051436
     19 N2          1.3060    3.4740    1.1760 n         1 MOL     -0.371708
     20 C7          1.7100    4.6540    0.4990 c3        1 MOL     -0.214800
     21 C8          0.6350    5.4460   -0.3480 c         1 MOL      0.553733
     22 O5          0.8760    6.6070   -0.7000 o         1 MOL     -0.581712
     23 C9          2.9230    4.2220   -0.4370 c3        1 MOL      0.096244
     24 C10         3.8300    5.3940   -0.8760 c3        1 MOL     -0.230293
     25 C11         4.9130    4.8060   -1.8330 c3        1 MOL     -0.069898
     26 C12         5.8130    5.8320   -2.4590 c3        1 MOL      0.076485
     27 N3          6.7600    5.1620   -3.3360 n4        1 MOL     -0.197581
     28 H8          1.4950    2.5790    0.7470 hn        1 MOL      0.223373
     29 H9          2.0870    5.4250    1.1800 h1        1 MOL      0.146466
     30 H10         2.4990    3.6510   -1.2530 hc        1 MOL      0.057352
     31 H11         3.5500    3.4280   -0.0260 hc        1 MOL      0.057352
     32 H12         4.3580    5.9380   -0.0980 hc        1 MOL      0.089100
     33 H13         3.1850    6.0330   -1.4690 hc        1 MOL      0.089100
     34 H14         4.3560    4.2430   -2.5830 hc        1 MOL      0.069144
     35 H15         5.6330    4.2070   -1.2770 hc        1 MOL      0.069144
     36 H16         6.4230    6.5160   -1.8730 hx        1 MOL      0.065800
     37 H17         5.2490    6.3720   -3.2140 hx        1 MOL      0.065800
     38 H18         6.3570    4.5270   -4.0000 hn        1 MOL      0.276028
     39 H19         7.2950    5.7200   -3.9910 hn        1 MOL      0.276028
     40 H20         7.3520    4.5370   -2.7960 hn        1 MOL      0.276028
     41 N4         -0.5160    4.8940   -0.6090 n         1 MOL     -0.336401
     42 C13        -1.7450    5.6240   -1.0370 c3        1 MOL      0.068291
     43 C14        -2.9740    5.4370   -0.0540 c         1 MOL      0.537982
     44 O6         -3.7640    6.2980    0.0210 o         1 MOL     -0.545599
     45 C15        -2.2680    5.1780   -2.4240 c3        1 MOL     -0.319106
     46 C16        -2.4270    3.6890   -2.7000 c         1 MOL      0.871641
     47 O7         -2.5700    3.3620   -3.9000 o         1 MOL     -0.739525
     48 O8         -2.2500    2.8620   -1.7370 o         1 MOL     -0.739525
     49 H21        -0.6120    3.8920   -0.4850 hn        1 MOL      0.269364
     50 H22        -1.5910    6.7050   -1.0110 h1        1 MOL      0.096619
     51 H23        -1.5220    5.4680   -3.1630 hc        1 MOL      0.086687
     52 H24        -3.2180    5.6790   -2.5780 hc        1 MOL      0.086687
     53 N5         -3.1160    4.3000    0.6550 n         1 MOL     -0.260068
     54 C17        -4.2070    3.9310    1.5730 c3        1 MOL     -0.050688
     55 C18        -5.3960    3.1960    0.9380 c         1 MOL      0.607358
     56 O9         -6.4330    3.2540    1.5880 o         1 MOL     -0.602539
     57 H25        -2.4970    3.5640    0.3210 hn        1 MOL      0.012820
     58 H26        -4.5830    4.7780    2.1660 h1        1 MOL      0.085056
     59 H27        -3.7680    3.2220    2.2740 h1        1 MOL      0.085056
     60 N6         -5.2820    2.5610   -0.2460 n         1 MOL     -0.350438
     61 C19        -6.4560    1.7740   -0.7860 c3        1 MOL     -0.025724
     62 C20        -6.8670    0.4350   -0.1110 c         1 MOL      0.364165
     63 O10        -7.6590   -0.2970   -0.6630 o         1 MOL     -0.455786
     64 C21        -6.1940    1.5250   -2.2380 c3        1 MOL     -0.218350
     65 C22        -5.1240    0.4350   -2.4040 c         1 MOL      0.606691
     66 N7         -5.3430   -0.4520   -3.3500 n         1 MOL     -0.789525
     67 O11        -4.1320    0.3110   -1.7030 o         1 MOL     -0.537771
     68 H28        -4.3250    2.4130   -0.5390 hn        1 MOL      0.211950
     69 H29        -7.3560    2.3880   -0.7740 h1        1 MOL      0.145758
     70 H30        -5.8310    2.4820   -2.6230 hc        1 MOL      0.097105
     71 H31        -7.1210    1.2540   -2.7460 hc        1 MOL      0.097105
     72 H32        -6.2160   -0.3760   -3.8650 hn        1 MOL      0.382465
     73 H33        -4.7240   -1.2520   -3.3980 hn        1 MOL      0.382465
     74 N8         -6.4630    0.2240    1.1610 n         1 MOL     -0.216211
     75 C23        -6.8630   -0.9780    1.9340 c3        1 MOL     -0.273126
     76 C24        -5.8680   -2.1240    1.7800 c         1 MOL      0.660921
     77 O12        -6.1060   -3.1530    2.4240 o         1 MOL     -0.568870
     78 H34        -6.0130    0.9990    1.6410 hn        1 MOL      0.256241
     79 H35        -7.8940   -1.2670    1.6980 h1        1 MOL      0.150661
     80 H36        -7.0670   -0.6650    2.9590 h1        1 MOL      0.150661
     81 N9         -4.7230   -1.9700    1.1300 n         1 MOL     -0.650215
     82 C25        -3.7290   -3.0760    0.8950 c3        1 MOL      0.509297
     83 C26        -2.4160   -2.4780    0.8480 c         1 MOL      0.339764
     84 O13        -2.2280   -1.3840    0.3170 o         1 MOL     -0.504106
     85 C27        -4.0290   -3.7810   -0.3920 c3        1 MOL      0.024231
     86 C28        -5.4570   -4.3980   -0.4870 ca        1 MOL     -0.199734
     87 C29        -6.4060   -3.5860   -1.0660 ca        1 MOL      0.033546
     88 C30        -5.7210   -5.6900   -0.0280 ca        1 MOL      0.033546
     89 C31        -7.6610   -4.1460   -1.2630 ca        1 MOL     -0.376530
     90 C32        -7.0280   -6.2110   -0.1950 ca        1 MOL     -0.376530
     91 C33        -8.0600   -5.4030   -0.8000 ca        1 MOL      0.476664
     92 O14        -9.3350   -5.8500   -0.9830 oh        1 MOL     -0.527306
     93 H37        -4.5160   -1.1580    0.5610 hn        1 MOL      0.315850
     94 H38        -3.8170   -3.8010    1.6980 h1        1 MOL     -0.028916
     95 H39        -3.2440   -4.5370   -0.5150 hc        1 MOL     -0.018287
     96 H40        -3.9170   -3.0340   -1.1690 hc        1 MOL     -0.018287
     97 H41        -6.1400   -2.5980   -1.4300 ha        1 MOL      0.087444
     98 H42        -4.8620   -6.2740    0.2260 ha        1 MOL      0.087444
     99 H43        -8.3550   -3.5830   -1.8590 ha        1 MOL      0.149807
    100 H44        -7.2820   -7.2280    0.0690 ha        1 MOL      0.149807
    101 H45        -9.4630   -6.8000   -0.9500 ho        1 MOL      0.381382
    102 N10        -1.4010   -3.2770    1.2480 n         1 MOL     -0.531007
    103 C34         0.0400   -2.8390    1.1690 c3        1 MOL      0.113359
    104 C35         0.9600   -3.8770    0.5510 c         1 MOL      0.497027
    105 O15         0.9500   -4.9710    1.0040 o         1 MOL     -0.524742
    106 C36         0.4930   -2.4230    2.6420 c3        1 MOL      0.018822
    107 C37         1.7740   -1.6420    2.5290 c3        1 MOL     -0.068583
    108 C38         0.6030   -3.6110    3.6810 c3        1 MOL     -0.453907
    109 C39         2.3610   -1.0940    3.8310 c3        1 MOL     -0.336813
    110 H46        -1.5850   -4.1280    1.7630 hn        1 MOL      0.314826
    111 H47         0.1480   -1.9620    0.5270 h1        1 MOL      0.070969
    112 H48        -0.2740   -1.7160    2.9500 hc        1 MOL      0.115584
    113 H49         1.5220   -0.7250    1.9940 hc        1 MOL      0.105831
    114 H50         2.6000   -2.1500    2.0310 hc        1 MOL      0.105831
    115 H51        -0.2990   -4.2190    3.7370 hc        1 MOL      0.123702
    116 H52         1.4750   -4.2380    3.5440 hc        1 MOL      0.123702
    117 H53         0.6870   -3.1540    4.6710 hc        1 MOL      0.123702
    118 H54         2.8720   -1.9150    4.3300 hc        1 MOL      0.076626
    119 H55         3.0040   -0.2280    3.6930 hc        1 MOL      0.076626
    120 H56         1.5370   -0.8420    4.5010 hc        1 MOL      0.076626
    121 N11         1.8970   -3.5000   -0.3660 n         1 MOL     -0.422569
    122 C40         2.9600   -4.4380   -0.8810 c3        1 MOL      0.045830
    123 C41         4.2540   -4.2910   -0.1070 c         1 MOL      0.490104
    124 O16         4.4560   -3.3260    0.6590 o         1 MOL     -0.421501
    125 C42         3.1730   -4.1750   -2.4080 c3        1 MOL      0.020273
    126 O17         3.8170   -2.9570   -2.5970 oh        1 MOL     -0.433240
    127 H57         1.8040   -2.5860   -0.7990 hn        1 MOL      0.298633
    128 H58         2.6690   -5.4810   -0.7820 h1        1 MOL      0.071791
    129 H59         2.2840   -4.3770   -3.0070 h1        1 MOL      0.030100
    130 H60         3.8980   -4.8780   -2.8220 h1        1 MOL      0.030100
    131 H61         3.9050   -2.8670   -3.5480 ho        1 MOL      0.376025
    132 N12         5.2460   -5.1010   -0.4940 n         1 MOL     -0.453910
    133 C43         6.6650   -5.0170   -0.0550 c3        1 MOL      0.287669
    134 C44         7.2450   -3.6340   -0.3490 c         1 MOL      0.162104
    135 O18         7.9650   -3.0900    0.5440 o         1 MOL     -0.439554
    136 C45         7.5370   -6.0760   -0.7310 c3        1 MOL     -0.408307
    137 H62         4.9600   -5.9090   -1.0320 hn        1 MOL      0.264391
    138 H63         6.6250   -5.2730    1.0060 h1        1 MOL      0.067485
    139 H64         7.3290   -5.9230   -1.7870 hc        1 MOL      0.119221
    140 H65         8.6120   -5.8520   -0.6670 hc        1 MOL      0.119221
    141 H66         7.4400   -7.0580   -0.2710 hc        1 MOL      0.119221
    142 N13         7.1030   -3.1240   -1.5930 n         1 MOL     -0.128495
    143 C46         7.6800   -1.9100   -1.9780 c3        1 MOL      0.054225
    144 C47         7.0830   -0.7110   -1.1880 c         1 MOL      0.299236
    145 O19         7.7670    0.3290   -1.0410 o         1 MOL     -0.528215
    146 C48         7.4420   -1.6480   -3.4550 c3        1 MOL     -0.237465
    147 H67         6.6930   -3.6720   -2.3210 hn        1 MOL      0.230550
    148 H68         8.7540   -1.8770   -1.8080 h1        1 MOL      0.092187
    149 H69         6.3810   -1.4790   -3.6240 hc        1 MOL      0.060137
    150 H70         8.0230   -0.7960   -3.8100 hc        1 MOL      0.060137
    151 H71         7.7380   -2.5270   -4.0120 hc        1 MOL      0.060137
    152 N14         5.8230   -0.7510   -0.8200 n         1 MOL      0.039647
    153 C49         5.1730    0.2730   -0.0770 c3        1 MOL     -0.060963
    154 C50         5.5050    0.2450    1.3660 c         1 MOL      0.517161
    155 O20         5.7560    1.2050    2.0080 o         1 MOL     -0.552755
    156 C51         3.6300    0.1450   -0.2240 c3        1 MOL     -0.078333
    157 C52         3.2690    0.5270   -1.6200 c3        1 MOL      0.010812
    158 C53         1.7470    0.4160   -1.7550 c         1 MOL      0.748268
    159 O21         1.2190   -0.7160   -1.5200 o         1 MOL     -0.770648
    160 O22         1.0280    1.3740   -2.1280 o         1 MOL     -0.770648
    161 H72         5.3060   -1.5990   -0.9890 hn        1 MOL      0.043017
    162 H73         5.4790    1.2520   -0.4480 h1        1 MOL     -0.001820
    163 H74         3.2040    0.8080    0.5210 hc        1 MOL      0.042963
    164 H75         3.3190   -0.8910   -0.0540 hc        1 MOL      0.042963
    165 H76         3.7900   -0.1320   -2.3130 hc        1 MOL     -0.050409
    166 H77         3.4520    1.5580   -1.9340 hc        1 MOL     -0.050409
    167 N15         5.5390   -0.9190    1.9900 n         1 MOL     -0.038660
    168 C54         6.1260   -1.2190    3.2560 c3        1 MOL     -0.197884
    169 H78         7.0570   -1.7640    3.1050 h1        1 MOL      0.078160
    170 H79         6.3300   -0.2920    3.7910 h1        1 MOL      0.078160
    171 H80         5.4380   -1.8310    3.8390 h1        1 MOL      0.078160
    172 H81         5.1540   -1.6980    1.4820 hn        1 MOL      0.097026
    173 Ca1        -1.3890    0.4200   -1.5200 Ca        1 MOL      1.771118
    174 O23        -1.9600    0.5780   -4.1910 oh        1 MOL     -0.871906
    175 H82        -1.9840    0.2810   -5.1010 ho        1 MOL      0.422675
    176 H83        -2.2010    1.5070   -4.2320 ho        1 MOL      0.422675
    177 O24        -1.5940   -2.0410   -2.8500 oh        1 MOL     -0.871906
    178 H84        -1.4870   -2.8630   -2.3810 ho        1 MOL      0.422675
    179 H85        -1.7940   -2.3080   -3.7520 ho        1 MOL      0.422675
@<TRIPOS>BOND
     1    1    2 1   
     2    1    4 1   
     3    1    5 1   
     4    1    6 1   
     5    2    3 2   
     6    2    7 1   
     7    7    8 1   
     8    7   15 1   
     9    8    9 1   
    10    8   11 1   
    11    8   16 1   
    12    9   10 2   
    13    9   19 1   
    14   11   12 1   
    15   11   17 1   
    16   11   18 1   
    17   12   13 1   
    18   12   14 1   
    19   19   20 1   
    20   19   28 1   
    21   20   21 1   
    22   20   23 1   
    23   20   29 1   
    24   21   22 2   
    25   21   41 1   
    26   23   24 1   
    27   23   30 1   
    28   23   31 1   
    29   24   25 1   
    30   24   32 1   
    31   24   33 1   
    32   25   26 1   
    33   25   34 1   
    34   25   35 1   
    35   26   27 1   
    36   26   36 1   
    37   26   37 1   
    38   27   38 1   
    39   27   39 1   
    40   27   40 1   
    41   41   42 1   
    42   41   49 1   
    43   42   43 1   
    44   42   45 1   
    45   42   50 1   
    46   43   44 2   
    47   43   53 1   
    48   45   46 1   
    49   45   51 1   
    50   45   52 1   
    51   46   47 1   
    52   46   48 1   
    53   53   54 1   
    54   53   57 1   
    55   54   55 1   
    56   54   58 1   
    57   54   59 1   
    58   55   56 2   
    59   55   60 1   
    60   60   61 1   
    61   60   68 1   
    62   61   62 1   
    63   61   64 1   
    64   61   69 1   
    65   62   63 2   
    66   62   74 1   
    67   64   65 1   
    68   64   70 1   
    69   64   71 1   
    70   65   66 1   
    71   65   67 2   
    72   66   72 1   
    73   66   73 1   
    74   74   75 1   
    75   74   78 1   
    76   75   76 1   
    77   75   79 1   
    78   75   80 1   
    79   76   77 2   
    80   76   81 1   
    81   81   82 1   
    82   81   93 1   
    83   82   83 1   
    84   82   85 1   
    85   82   94 1   
    86   83   84 2   
    87   83  102 1   
    88   85   86 1   
    89   85   95 1   
    90   85   96 1   
    91   86   87 ar  
    92   86   88 ar  
    93   87   89 ar  
    94   87   97 1   
    95   88   90 ar  
    96   88   98 1   
    97   89   91 ar  
    98   89   99 1   
    99   90   91 ar  
   100   90  100 1   
   101   91   92 1   
   102   92  101 1   
   103  102  103 1   
   104  102  110 1   
   105  103  104 1   
   106  103  106 1   
   107  103  111 1   
   108  104  105 2   
   109  104  121 1   
   110  106  107 1   
   111  106  108 1   
   112  106  112 1   
   113  107  109 1   
   114  107  113 1   
   115  107  114 1   
   116  108  115 1   
   117  108  116 1   
   118  108  117 1   
   119  109  118 1   
   120  109  119 1   
   121  109  120 1   
   122  121  122 1   
   123  121  127 1   
   124  122  123 1   
   125  122  125 1   
   126  122  128 1   
   127  123  124 2   
   128  123  132 1   
   129  125  126 1   
   130  125  129 1   
   131  125  130 1   
   132  126  131 1   
   133  132  133 1   
   134  132  137 1   
   135  133  134 1   
   136  133  136 1   
   137  133  138 1   
   138  134  135 2   
   139  134  142 1   
   140  136  139 1   
   141  136  140 1   
   142  136  141 1   
   143  142  143 1   
   144  142  147 1   
   145  143  144 1   
   146  143  146 1   
   147  143  148 1   
   148  144  145 2   
   149  144  152 1   
   150  146  149 1   
   151  146  150 1   
   152  146  151 1   
   153  152  153 1   
   154  152  161 1   
   155  153  154 1   
   156  153  156 1   
   157  153  162 1   
   158  154  155 2   
   159  154  167 1   
   160  156  157 1   
   161  156  163 1   
   162  156  164 1   
   163  157  158 1   
   164  157  165 1   
   165  157  166 1   
   166  158  159 1   
   167  158  160 1   
   168  167  168 1   
   169  167  172 1   
   170  168  169 1   
   171  168  170 1   
   172  168  171 1   
   173  174  175 1   
   174  174  176 1   
   175  177  178 1   
   176  177  179 1   
@<TRIPOS>SUBSTRUCTURE
     1 MOL         1 TEMP              0 ****  ****    0 ROOT
