@<TRIPOS>MOLECULE
MOL
  176   174     1     0     0
SMALL
resp


@<TRIPOS>ATOM
      1 C1          1.6090   -3.8380    6.6470 c3        1 MOL     -0.265576
      2 C2          1.0560   -3.4820    5.2880 c         1 MOL      0.681275
      3 O1         -0.0100   -3.9500    4.8500 o         1 MOL     -0.568819
      4 H1          2.4430   -4.5290    6.5300 hc        1 MOL      0.066342
      5 H2          1.9560   -2.9340    7.1480 hc        1 MOL      0.066342
      6 H3          0.8290   -4.3090    7.2450 hc        1 MOL      0.066342
      7 N1          1.8580   -2.7290    4.5440 n         1 MOL     -0.460399
      8 C3          1.6550   -2.4740    3.1370 c3        1 MOL     -0.139901
      9 C4          1.7140   -3.8350    2.3550 c         1 MOL      0.730861
     10 O2          2.4260   -4.7690    2.7720 o         1 MOL     -0.549171
     11 C5          2.8090   -1.4770    2.8520 c3        1 MOL     -0.335169
     12 C6          3.0160   -1.1550    1.3780 c         1 MOL      0.961410
     13 O3          2.8200   -1.9950    0.4840 o         1 MOL     -0.823907
     14 O4          3.2730    0.0190    1.0650 o         1 MOL     -0.823907
     15 H4          2.7480   -2.5240    4.9550 hn        1 MOL      0.289023
     16 H5          0.7030   -1.9670    2.9590 h1        1 MOL      0.111316
     17 H6          3.7340   -1.9790    3.1390 hc        1 MOL      0.101176
     18 H7          2.7770   -0.5510    3.4030 hc        1 MOL      0.101176
     19 N2          0.8300   -3.9300    1.2570 n         1 MOL     -0.372112
     20 C7          0.5540   -5.1650    0.4450 c3        1 MOL     -0.405662
     21 C8          1.7350   -5.5150   -0.4270 c         1 MOL      0.752078
     22 O5          1.8390   -6.6620   -0.8650 o         1 MOL     -0.593658
     23 C9         -0.6520   -4.9610   -0.4510 c3        1 MOL      0.497689
     24 C10        -1.3850   -6.2670   -0.7700 c3        1 MOL     -0.116345
     25 C11        -2.7030   -6.1190   -1.5590 c3        1 MOL     -0.220804
     26 C12        -2.5380   -5.8700   -3.0870 c3        1 MOL      0.160386
     27 N3         -3.7600   -5.8440   -3.8860 n4        1 MOL     -0.461026
     28 H8          0.3610   -3.0660    1.0100 hn        1 MOL      0.173219
     29 H9          0.4590   -6.0010    1.1320 h1        1 MOL      0.157680
     30 H10        -0.4040   -4.4140   -1.3670 hc        1 MOL     -0.081887
     31 H11        -1.4080   -4.3900    0.0840 hc        1 MOL     -0.081887
     32 H12        -1.6160   -6.7290    0.1920 hc        1 MOL      0.043094
     33 H13        -0.6040   -6.8240   -1.2730 hc        1 MOL      0.043094
     34 H14        -3.2440   -5.2850   -1.1040 hc        1 MOL      0.085891
     35 H15        -3.3270   -6.9930   -1.3910 hc        1 MOL      0.085891
     36 H16        -1.7680   -6.5150   -3.5230 hx        1 MOL      0.049836
     37 H17        -2.0260   -4.9020   -3.1530 hx        1 MOL      0.049836
     38 H18        -4.1860   -6.7570   -3.9680 hn        1 MOL      0.354943
     39 H19        -4.4410   -5.2240   -3.4570 hn        1 MOL      0.354943
     40 H20        -3.6260   -5.5010   -4.8210 hn        1 MOL      0.354943
     41 N4          2.6170   -4.5690   -0.6850 n         1 MOL     -0.585282
     42 C13         3.6340   -4.6960   -1.7070 c3        1 MOL      0.100471
     43 C14         4.9980   -4.1810   -1.2770 c         1 MOL      0.494424
     44 O6          5.9860   -4.4660   -1.9490 o         1 MOL     -0.562872
     45 C15         3.2280   -3.9730   -2.9640 c3        1 MOL     -0.157692
     46 C16         2.6490   -2.5650   -2.7090 c         1 MOL      0.604215
     47 O7          1.4220   -2.3970   -2.6160 o         1 MOL     -0.644084
     48 O8          3.4660   -1.6080   -2.6810 o         1 MOL     -0.644084
     49 H21         2.4400   -3.5870   -0.4800 hn        1 MOL      0.356593
     50 H22         3.7730   -5.7340   -2.0270 h1        1 MOL      0.085513
     51 H23         2.4700   -4.5440   -3.5180 hc        1 MOL      0.044865
     52 H24         4.0760   -3.9580   -3.6500 hc        1 MOL      0.044865
     53 N5          5.0870   -3.3860   -0.1750 n         1 MOL     -0.348927
     54 C17         6.3950   -2.9200    0.3490 c3        1 MOL     -0.022951
     55 C18         6.6640   -1.4460   -0.0130 c         1 MOL      0.431452
     56 O9          7.6280   -0.9560    0.5570 o         1 MOL     -0.545268
     57 H25         4.2300   -3.0460    0.2500 hn        1 MOL      0.222224
     58 H26         7.1930   -3.5560   -0.0340 h1        1 MOL      0.086130
     59 H27         6.4080   -3.0220    1.4350 h1        1 MOL      0.086130
     60 N6          5.9300   -0.8030   -0.9610 n         1 MOL     -0.100554
     61 C19         6.4370    0.4370   -1.4880 c3        1 MOL     -0.109772
     62 C20         6.2420    1.6720   -0.5380 c         1 MOL      0.374250
     63 O10         6.8510    2.7420   -0.7950 o         1 MOL     -0.530141
     64 C21         5.8370    0.7060   -2.9450 c3        1 MOL     -0.095600
     65 C22         4.3550    1.0250   -2.9210 c         1 MOL      0.667343
     66 N7          3.7340    1.1490   -4.0220 n         1 MOL     -0.634900
     67 O11         3.7090    1.0790   -1.8440 o         1 MOL     -0.675325
     68 H28         5.1690   -1.2930   -1.3990 hn        1 MOL      0.117860
     69 H29         7.4980    0.3270   -1.7040 h1        1 MOL      0.124650
     70 H30         6.0190   -0.1020   -3.6500 hc        1 MOL      0.063257
     71 H31         6.2860    1.5880   -3.4050 hc        1 MOL      0.063257
     72 H32         4.1910    1.2980   -4.9050 hn        1 MOL      0.313754
     73 H33         2.9540    1.7950   -4.0020 hn        1 MOL      0.313754
     74 N8          5.4390    1.5980    0.5440 n         1 MOL      0.021853
     75 C23         5.4500    2.4990    1.6680 c3        1 MOL     -0.456579
     76 C24         4.2400    3.4660    1.5690 c         1 MOL      0.590908
     77 O12         4.1120    4.4180    2.3320 o         1 MOL     -0.548645
     78 H34         4.8730    0.7540    0.5590 hn        1 MOL      0.160272
     79 H35         6.3760    3.0580    1.5910 h1        1 MOL      0.183544
     80 H36         5.3480    1.8110    2.5100 h1        1 MOL      0.183544
     81 N9          3.2870    3.2900    0.6210 n         1 MOL     -0.176297
     82 C25         1.9630    3.9470    0.6110 c3        1 MOL      0.001836
     83 C26         0.7670    2.9380    0.6050 c         1 MOL      0.524883
     84 O13         0.6780    2.0690   -0.2950 o         1 MOL     -0.648405
     85 C27         1.9030    4.8290   -0.6170 c3        1 MOL      0.004154
     86 C28         2.7740    6.0950   -0.6040 ca        1 MOL      0.224380
     87 C29         3.7720    6.2770   -1.5040 ca        1 MOL     -0.350148
     88 C30         2.4440    7.0450    0.3410 ca        1 MOL     -0.350148
     89 C31         4.6530    7.3170   -1.2930 ca        1 MOL     -0.096645
     90 C32         3.1690    8.2100    0.3630 ca        1 MOL     -0.096645
     91 C33         4.3400    8.4640   -0.4690 ca        1 MOL      0.213690
     92 O14         4.9660    9.6520   -0.5390 oh        1 MOL     -0.430817
     93 H37         3.5270    2.5640   -0.0390 hn        1 MOL      0.112693
     94 H38         1.8810    4.5570    1.5170 h1        1 MOL      0.052321
     95 H39         0.9210    5.2360   -0.8550 hc        1 MOL      0.002174
     96 H40         2.1850    4.2580   -1.5050 hc        1 MOL      0.002174
     97 H41         4.0450    5.4980   -2.2060 ha        1 MOL      0.169991
     98 H42         1.6140    6.9360    1.0300 ha        1 MOL      0.169991
     99 H43         5.4690    7.4440   -1.9860 ha        1 MOL      0.107261
    100 H44         2.9260    8.8430    1.2030 ha        1 MOL      0.107261
    101 H45         4.3370   10.3260   -0.2730 ho        1 MOL      0.341124
    102 N10        -0.1860    3.1730    1.5380 n         1 MOL     -0.501531
    103 C34        -1.4560    2.4090    1.6310 c3        1 MOL      0.073191
    104 C35        -2.6030    3.3300    1.2480 c         1 MOL      0.539356
    105 O15        -2.8770    4.2440    1.9950 o         1 MOL     -0.509289
    106 C36        -1.7090    1.6960    3.0120 c3        1 MOL     -0.060863
    107 C37        -0.7460    0.5510    3.2430 c3        1 MOL      0.158719
    108 C38        -3.1880    1.2060    3.1220 c3        1 MOL     -0.169547
    109 C39        -0.7590   -0.1250    4.6400 c3        1 MOL     -0.072504
    110 H46        -0.1110    3.9890    2.1320 hn        1 MOL      0.331757
    111 H47        -1.3970    1.5810    0.9210 h1        1 MOL      0.074907
    112 H48        -1.5210    2.4370    3.7960 hc        1 MOL      0.039174
    113 H49         0.2360    1.0090    3.1350 hc        1 MOL     -0.003518
    114 H50        -0.9310   -0.2340    2.5050 hc        1 MOL     -0.003518
    115 H51        -3.3060    0.3210    2.4980 hc        1 MOL      0.052359
    116 H52        -3.4560    0.9060    4.1390 hc        1 MOL      0.052359
    117 H53        -3.8900    1.9850    2.8440 hc        1 MOL      0.052359
    118 H54        -1.7230   -0.5640    4.8790 hc        1 MOL      0.005540
    119 H55         0.0070   -0.9050    4.6790 hc        1 MOL      0.005540
    120 H56        -0.5680    0.6190    5.4110 hc        1 MOL      0.005540
    121 N11        -3.1870    3.1060    0.0390 n         1 MOL     -0.427554
    122 C40        -4.4480    3.6930   -0.3840 c3        1 MOL      0.025824
    123 C41        -5.6610    3.0520    0.2580 c         1 MOL      0.432952
    124 O16        -5.5700    2.0270    0.9530 o         1 MOL     -0.342298
    125 C42        -4.5880    3.3850   -1.9000 c3        1 MOL     -0.048871
    126 O17        -4.3840    1.9870   -2.1480 oh        1 MOL     -0.462493
    127 H57        -2.7460    2.4030   -0.5340 hn        1 MOL      0.315064
    128 H58        -4.5920    4.7730   -0.2840 h1        1 MOL      0.085401
    129 H59        -3.7610    3.9400   -2.3510 h1        1 MOL      0.086108
    130 H60        -5.4750    3.7600   -2.4190 h1        1 MOL      0.086108
    131 H61        -3.4460    1.7920   -2.1560 ho        1 MOL      0.356266
    132 N12        -6.8510    3.6650    0.0370 n         1 MOL     -0.510292
    133 C43        -8.1300    2.9750    0.3570 c3        1 MOL      0.242936
    134 C44        -8.5130    1.6230   -0.3160 c         1 MOL      0.380539
    135 O18        -9.2310    0.8530    0.2480 o         1 MOL     -0.485309
    136 C45        -9.2830    3.9500    0.0590 c3        1 MOL     -0.261646
    137 H62        -6.8520    4.4960   -0.5330 hn        1 MOL      0.306364
    138 H63        -8.1950    2.7420    1.4240 h1        1 MOL      0.049274
    139 H64        -8.9550    4.9610    0.2930 hc        1 MOL      0.076450
    140 H65        -9.5010    3.8870   -1.0040 hc        1 MOL      0.076450
    141 H66       -10.1600    3.5970    0.6060 hc        1 MOL      0.076450
    142 N13        -8.0680    1.4330   -1.5260 n         1 MOL     -0.301444
    143 C46        -8.0990    0.1070   -2.2060 c3        1 MOL      0.147983
    144 C47        -7.1870   -0.9420   -1.6040 c         1 MOL      0.299287
    145 O19        -7.5780   -2.0800   -1.3620 o         1 MOL     -0.508010
    146 C48        -7.8250    0.3950   -3.6480 c3        1 MOL     -0.241094
    147 H67        -7.6870    2.2650   -1.9540 hn        1 MOL      0.230861
    148 H68        -9.1320   -0.2460   -2.2900 h1        1 MOL      0.093461
    149 H69        -7.7690   -0.5050   -4.2620 hc        1 MOL      0.068120
    150 H70        -8.6720    0.9640   -4.0210 hc        1 MOL      0.068120
    151 H71        -6.8390    0.8570   -3.7250 hc        1 MOL      0.068120
    152 N14        -5.9480   -0.6000   -1.2460 n         1 MOL     -0.070493
    153 C49        -5.0270   -1.4960   -0.4780 c3        1 MOL     -0.152975
    154 C50        -5.4780   -1.6750    0.9770 c         1 MOL      0.516722
    155 O20        -5.3530   -2.8040    1.4770 o         1 MOL     -0.574110
    156 C51        -3.6330   -0.8850   -0.5030 c3        1 MOL     -0.176696
    157 C52        -2.6380   -1.8490   -0.0020 c3        1 MOL     -0.080505
    158 C53        -1.2170   -1.2680   -0.3490 c         1 MOL      0.703510
    159 O21        -0.1830   -1.5170    0.3360 o         1 MOL     -0.767941
    160 O22        -0.9770   -0.5970   -1.3680 o         1 MOL     -0.767941
    161 H72        -5.5410    0.2870   -1.4930 hn        1 MOL      0.053541
    162 H73        -5.0580   -2.4800   -0.9540 h1        1 MOL      0.094142
    163 H74        -3.6540    0.0590    0.0410 hc        1 MOL      0.066958
    164 H75        -3.4510   -0.6810   -1.5590 hc        1 MOL      0.066958
    165 H76        -2.7130   -2.8340   -0.4630 hc        1 MOL      0.093224
    166 H77        -2.6960   -2.0770    1.0600 hc        1 MOL      0.093224
    167 N15        -5.9620   -0.6810    1.7000 n         1 MOL     -0.064254
    168 C54        -6.4560   -0.9070    3.0420 c3        1 MOL     -0.200478
    169 H78        -7.4300   -0.4290    3.1550 h1        1 MOL      0.090398
    170 H79        -6.5560   -1.9780    3.2180 h1        1 MOL      0.090398
    171 H80        -5.7580   -0.4830    3.7630 h1        1 MOL      0.090398
    172 H81        -5.7820    0.2690    1.4270 hn        1 MOL      0.074510
    173 Ca1         1.6910   -0.2670   -1.1370 Ca        1 MOL      1.779992
    174 O23         0.7810    0.6730   -3.8740 oh        1 MOL     -0.814902
    175 H82         0.1670    0.1460   -4.3890 ho        1 MOL      0.403661
    176 H83         0.5570    1.5750   -4.0970 ho        1 MOL      0.403661
@<TRIPOS>BOND
     1    1    2 1   
     2    1    4 1   
     3    1    5 1   
     4    1    6 1   
     5    2    3 2   
     6    2    7 1   
     7    7    8 1   
     8    7   15 1   
     9    8    9 1   
    10    8   11 1   
    11    8   16 1   
    12    9   10 2   
    13    9   19 1   
    14   11   12 1   
    15   11   17 1   
    16   11   18 1   
    17   12   13 1   
    18   12   14 1   
    19   19   20 1   
    20   19   28 1   
    21   20   21 1   
    22   20   23 1   
    23   20   29 1   
    24   21   22 2   
    25   21   41 1   
    26   23   24 1   
    27   23   30 1   
    28   23   31 1   
    29   24   25 1   
    30   24   32 1   
    31   24   33 1   
    32   25   26 1   
    33   25   34 1   
    34   25   35 1   
    35   26   27 1   
    36   26   36 1   
    37   26   37 1   
    38   27   38 1   
    39   27   39 1   
    40   27   40 1   
    41   41   42 1   
    42   41   49 1   
    43   42   43 1   
    44   42   45 1   
    45   42   50 1   
    46   43   44 2   
    47   43   53 1   
    48   45   46 1   
    49   45   51 1   
    50   45   52 1   
    51   46   47 1   
    52   46   48 1   
    53   53   54 1   
    54   53   57 1   
    55   54   55 1   
    56   54   58 1   
    57   54   59 1   
    58   55   56 2   
    59   55   60 1   
    60   60   61 1   
    61   60   68 1   
    62   61   62 1   
    63   61   64 1   
    64   61   69 1   
    65   62   63 2   
    66   62   74 1   
    67   64   65 1   
    68   64   70 1   
    69   64   71 1   
    70   65   66 1   
    71   65   67 2   
    72   66   72 1   
    73   66   73 1   
    74   74   75 1   
    75   74   78 1   
    76   75   76 1   
    77   75   79 1   
    78   75   80 1   
    79   76   77 2   
    80   76   81 1   
    81   81   82 1   
    82   81   93 1   
    83   82   83 1   
    84   82   85 1   
    85   82   94 1   
    86   83   84 2   
    87   83  102 1   
    88   85   86 1   
    89   85   95 1   
    90   85   96 1   
    91   86   87 ar  
    92   86   88 ar  
    93   87   89 ar  
    94   87   97 1   
    95   88   90 ar  
    96   88   98 1   
    97   89   91 ar  
    98   89   99 1   
    99   90   91 ar  
   100   90  100 1   
   101   91   92 1   
   102   92  101 1   
   103  102  103 1   
   104  102  110 1   
   105  103  104 1   
   106  103  106 1   
   107  103  111 1   
   108  104  105 2   
   109  104  121 1   
   110  106  107 1   
   111  106  108 1   
   112  106  112 1   
   113  107  109 1   
   114  107  113 1   
   115  107  114 1   
   116  108  115 1   
   117  108  116 1   
   118  108  117 1   
   119  109  118 1   
   120  109  119 1   
   121  109  120 1   
   122  121  122 1   
   123  121  127 1   
   124  122  123 1   
   125  122  125 1   
   126  122  128 1   
   127  123  124 2   
   128  123  132 1   
   129  125  126 1   
   130  125  129 1   
   131  125  130 1   
   132  126  131 1   
   133  132  133 1   
   134  132  137 1   
   135  133  134 1   
   136  133  136 1   
   137  133  138 1   
   138  134  135 2   
   139  134  142 1   
   140  136  139 1   
   141  136  140 1   
   142  136  141 1   
   143  142  143 1   
   144  142  147 1   
   145  143  144 1   
   146  143  146 1   
   147  143  148 1   
   148  144  145 2   
   149  144  152 1   
   150  146  149 1   
   151  146  150 1   
   152  146  151 1   
   153  152  153 1   
   154  152  161 1   
   155  153  154 1   
   156  153  156 1   
   157  153  162 1   
   158  154  155 2   
   159  154  167 1   
   160  156  157 1   
   161  156  163 1   
   162  156  164 1   
   163  157  158 1   
   164  157  165 1   
   165  157  166 1   
   166  158  159 1   
   167  158  160 1   
   168  167  168 1   
   169  167  172 1   
   170  168  169 1   
   171  168  170 1   
   172  168  171 1   
   173  174  175 1   
   174  174  176 1   
@<TRIPOS>SUBSTRUCTURE
     1 MOL         1 TEMP              0 ****  ****    0 ROOT
