@<TRIPOS>MOLECULE
MOL
  189   185     1     0     0
SMALL
resp


@<TRIPOS>ATOM
      1 C1         -1.3150   -0.2980    6.8520 c3        1 MOL     -0.452956
      2 C2         -1.4450    0.1830    5.4090 c         1 MOL      0.792753
      3 O1         -0.4240    0.6760    4.9090 o         1 MOL     -0.614140
      4 H1         -0.4920    0.2280    7.3360 hc        1 MOL      0.114339
      5 H2         -2.2420   -0.0930    7.3880 hc        1 MOL      0.114339
      6 H3         -1.1180   -1.3700    6.8610 hc        1 MOL      0.114339
      7 N1         -2.6650    0.2080    4.8410 n         1 MOL     -0.629305
      8 C3         -2.9910    0.6270    3.4450 c3        1 MOL      0.153097
      9 C4         -3.0930    2.1650    3.3390 c         1 MOL      0.504114
     10 O2         -3.9590    2.8240    3.9450 o         1 MOL     -0.561998
     11 C5         -4.2580   -0.0440    2.8550 c3        1 MOL     -0.037864
     12 C6         -4.6480    0.2310    1.3990 c         1 MOL      0.606351
     13 O3         -3.7820    0.3020    0.4490 o         1 MOL     -0.626708
     14 O4         -5.7950    0.5800    1.0860 o         1 MOL     -0.626708
     15 H4         -3.4160   -0.1330    5.4320 hn        1 MOL      0.318690
     16 H5         -2.1490    0.3520    2.8020 h1        1 MOL      0.065314
     17 H6         -5.1670    0.1390    3.4230 hc        1 MOL      0.013076
     18 H7         -4.0040   -1.0960    2.9770 hc        1 MOL      0.013076
     19 N2         -2.1250    2.7020    2.5910 n         1 MOL     -0.190826
     20 C7         -1.8410    4.1420    2.5240 c3        1 MOL     -0.144416
     21 C8         -2.6700    4.8720    1.4930 c         1 MOL      0.493430
     22 O5         -2.6980    6.1060    1.5090 o         1 MOL     -0.569875
     23 C9         -0.3660    4.6370    2.4080 c3        1 MOL     -0.008638
     24 C10         0.2570    4.5550    0.9620 c3        1 MOL     -0.067895
     25 C11         1.7000    5.0340    1.1130 c3        1 MOL     -0.123809
     26 C12         2.4540    4.8560   -0.2530 c3        1 MOL      0.160092
     27 N3          1.5930    5.2450   -1.4380 n4        1 MOL     -0.461127
     28 H8         -1.5810    2.0130    2.0940 hn        1 MOL      0.070829
     29 H9         -2.0840    4.5600    3.5060 h1        1 MOL      0.132057
     30 H10         0.2650    4.2670    3.2150 hc        1 MOL      0.053937
     31 H11        -0.2890    5.6910    2.6570 hc        1 MOL      0.053937
     32 H12        -0.2720    5.2340    0.2950 hc        1 MOL      0.065440
     33 H13         0.2810    3.5150    0.6530 hc        1 MOL      0.065440
     34 H14         2.1690    4.4890    1.9370 hc        1 MOL      0.056026
     35 H15         1.7710    6.0780    1.4250 hc        1 MOL      0.056026
     36 H16         2.7480    3.8050   -0.3370 hx        1 MOL      0.004683
     37 H17         3.3440    5.4710   -0.1980 hx        1 MOL      0.004683
     38 H18         2.1280    5.0380   -2.2740 hn        1 MOL      0.329191
     39 H19         0.7360    4.7350   -1.5850 hn        1 MOL      0.329191
     40 H20         1.3720    6.2210   -1.3160 hn        1 MOL      0.329191
     41 N4         -3.3090    4.1930    0.5530 n         1 MOL     -0.311015
     42 C13        -3.8610    4.7510   -0.6740 c3        1 MOL      0.036189
     43 C14        -4.9720    3.9880   -1.3310 c         1 MOL      0.432550
     44 O6         -5.1020    3.9380   -2.5470 o         1 MOL     -0.478535
     45 C15        -2.6480    4.9400   -1.6280 c3        1 MOL     -0.135600
     46 C16        -1.7630    3.6720   -1.6690 c         1 MOL      0.873579
     47 O7         -2.1870    2.5110   -1.3690 o         1 MOL     -0.793337
     48 O8         -0.5920    3.8580   -2.1090 o         1 MOL     -0.793337
     49 H21        -3.1850    3.1850    0.5060 hn        1 MOL      0.190049
     50 H22        -4.3940    5.6380   -0.3290 h1        1 MOL      0.076247
     51 H23        -2.0370    5.7940   -1.3450 hc        1 MOL      0.026545
     52 H24        -2.9780    5.2130   -2.6310 hc        1 MOL      0.026545
     53 N5         -5.8540    3.4070   -0.5470 n         1 MOL     -0.192118
     54 C17        -7.1630    2.7830   -0.9120 c3        1 MOL     -0.431485
     55 C18        -7.1750    1.6740   -1.8890 c         1 MOL      0.651346
     56 O9         -7.8550    1.7880   -2.9170 o         1 MOL     -0.589052
     57 H25        -5.7140    3.4630    0.4540 hn        1 MOL      0.235339
     58 H26        -7.6830    3.6500   -1.3300 h1        1 MOL      0.166078
     59 H27        -7.5990    2.4670    0.0360 h1        1 MOL      0.166078
     60 N6         -6.5240    0.5960   -1.6770 n         1 MOL     -0.277722
     61 C19        -6.7150   -0.6050   -2.5430 c3        1 MOL     -0.057245
     62 C20        -6.7640   -1.9130   -1.7490 c         1 MOL      0.367375
     63 O10        -6.7900   -3.0330   -2.2890 o         1 MOL     -0.511455
     64 C21        -5.6130   -0.6580   -3.6090 c3        1 MOL     -0.041170
     65 C22        -4.2790   -0.7520   -3.0100 c         1 MOL      0.679297
     66 O11        -3.3680    0.0990   -3.3070 o         1 MOL     -0.720662
     67 O12        -3.9920   -1.6750   -2.1810 o         1 MOL     -0.720662
     68 H28        -5.8720    0.6090   -0.9040 hn        1 MOL      0.164131
     69 H29        -7.6370   -0.4710   -3.0960 h1        1 MOL      0.125096
     70 H30        -5.7490    0.2670   -4.1760 hc        1 MOL      0.041379
     71 H31        -5.7830   -1.4950   -4.2890 hc        1 MOL      0.041379
     72 N7         -6.6710   -1.8230   -0.4440 n         1 MOL     -0.160716
     73 C23        -6.5840   -2.9180    0.5330 c3        1 MOL     -0.096049
     74 C24        -5.3990   -3.9440    0.2970 c         1 MOL      0.468295
     75 O13        -5.5510   -5.1170    0.6770 o         1 MOL     -0.560414
     76 H32        -6.5840   -0.8860   -0.0780 hn        1 MOL      0.162835
     77 H33        -7.5220   -3.4560    0.4560 h1        1 MOL      0.083401
     78 H34        -6.4980   -2.4640    1.5230 h1        1 MOL      0.083401
     79 N8         -4.2350   -3.6330   -0.2640 n         1 MOL     -0.039859
     80 C25        -3.0350   -4.4180   -0.2610 c3        1 MOL     -0.244266
     81 C26        -1.7550   -3.6270    0.0660 c         1 MOL      0.609523
     82 O14        -1.7850   -2.3880    0.1940 o         1 MOL     -0.733296
     83 C27        -2.8240   -5.2340   -1.5560 c3        1 MOL      0.436669
     84 C28        -3.6800   -6.5190   -1.7740 c3        1 MOL     -0.493315
     85 O15        -3.1020   -4.3960   -2.7190 oh        1 MOL     -0.641592
     86 H35        -4.1260   -2.7240   -0.6920 hn        1 MOL      0.078463
     87 H36        -3.0280   -5.1400    0.5630 h1        1 MOL      0.113725
     88 H37        -1.7640   -5.5010   -1.6760 h1        1 MOL      0.010380
     89 H38        -3.6510   -3.6740   -2.3970 ho        1 MOL      0.407066
     90 H39        -3.5560   -7.2830   -0.9960 hc        1 MOL      0.129224
     91 H40        -4.7280   -6.2570   -1.9060 hc        1 MOL      0.129224
     92 H41        -3.4000   -6.9280   -2.7390 hc        1 MOL      0.129224
     93 N9         -0.6150   -4.3050    0.2620 n         1 MOL     -0.495578
     94 C29         0.6480   -3.7140    0.7530 c3        1 MOL      0.169318
     95 C30         1.6800   -3.7570   -0.4430 c         1 MOL      0.372242
     96 O16         2.1010   -4.8040   -0.8810 o         1 MOL     -0.536437
     97 C31         1.0550   -4.3640    2.1300 c3        1 MOL      0.034986
     98 C32         0.5190   -3.6750    3.3050 c3        1 MOL      0.003028
     99 C33         2.6330   -4.2820    2.4060 c3        1 MOL     -0.165421
    100 C34        -0.9810   -3.8770    3.3710 c3        1 MOL     -0.015041
    101 H42        -0.6860   -5.3100    0.3130 hn        1 MOL      0.257838
    102 H43         0.4810   -2.6650    0.9710 h1        1 MOL      0.250663
    103 H44         0.8840   -5.4420    2.0990 hc        1 MOL      0.039017
    104 H45         0.6450   -2.5940    3.1870 hc        1 MOL      0.017710
    105 H46         0.8700   -4.0530    4.2620 hc        1 MOL      0.017710
    106 H47         2.8730   -3.3770    2.9760 hc        1 MOL      0.020503
    107 H48         2.9070   -5.1660    2.9610 hc        1 MOL      0.020503
    108 H49         3.0980   -4.3020    1.4130 hc        1 MOL      0.020503
    109 H50        -1.4870   -3.0760    2.8260 hc        1 MOL     -0.013200
    110 H51        -1.3420   -4.8710    3.0970 hc        1 MOL     -0.013200
    111 H52        -1.2680   -3.6750    4.4110 hc        1 MOL     -0.013200
    112 N10         2.1790   -2.6170   -0.8200 n         1 MOL      0.007958
    113 C35         3.2970   -2.4020   -1.7430 c3        1 MOL      0.002659
    114 C36         4.6550   -2.3420   -0.9880 c         1 MOL      0.323460
    115 O17         4.6690   -2.4660    0.2310 o         1 MOL     -0.334579
    116 C37         3.1480   -1.0160   -2.4580 c3        1 MOL      0.210367
    117 C38         2.0810   -0.9380   -3.5330 c3        1 MOL     -0.577984
    118 O18         2.8840    0.0980   -1.6610 oh        1 MOL     -0.525230
    119 H53         1.8130   -1.7700   -0.4010 hn        1 MOL     -0.115293
    120 H54         3.3840   -3.2220   -2.4490 h1        1 MOL      0.072374
    121 H55         4.1060   -0.7800   -2.9390 h1        1 MOL      0.044674
    122 H56         2.1210   -0.1070   -1.1140 ho        1 MOL      0.415133
    123 H57         2.1290   -1.8190   -4.1590 hc        1 MOL      0.161598
    124 H58         1.0850   -0.9590   -3.0780 hc        1 MOL      0.161598
    125 H59         2.1290    0.0030   -4.0880 hc        1 MOL      0.161598
    126 N11         5.7550   -2.1380   -1.7540 n         1 MOL     -0.231044
    127 C39         7.1070   -2.1100   -1.2260 c3        1 MOL     -0.218035
    128 C40         7.2900   -0.8950   -0.2760 c         1 MOL      0.406830
    129 O19         7.8400   -1.0780    0.8060 o         1 MOL     -0.474533
    130 C41         8.1340   -2.0790   -2.3990 c3        1 MOL      0.218207
    131 C42         8.1400   -3.5610   -2.9880 c3        1 MOL     -0.201493
    132 O20         7.8290   -1.2220   -3.5230 oh        1 MOL     -0.606848
    133 H60         5.6150   -2.1720   -2.7580 hn        1 MOL      0.246823
    134 H61         7.2320   -2.9710   -0.5740 h1        1 MOL      0.179738
    135 H62         9.1020   -1.7700   -2.0120 h1        1 MOL      0.051563
    136 H63         8.5970   -0.6630   -3.6810 ho        1 MOL      0.399938
    137 H64         8.4440   -3.5880   -4.0270 hc        1 MOL      0.069803
    138 H65         8.8480   -4.1410   -2.3960 hc        1 MOL      0.069803
    139 H66         7.2140   -4.1040   -2.7920 hc        1 MOL      0.069803
    140 N12         6.6140    0.2010   -0.5780 n         1 MOL     -0.165288
    141 C43         6.6120    1.3630    0.2730 c3        1 MOL     -0.029955
    142 C44         5.7730    1.2160    1.5670 c         1 MOL      0.239491
    143 O21         6.1550    1.7530    2.6500 o         1 MOL     -0.462326
    144 C45         5.8880    2.4730   -0.5560 c3        1 MOL     -0.169784
    145 C46         6.5630    2.7800   -1.9020 c3        1 MOL     -0.084169
    146 C47         8.1190    2.9310   -1.8150 c3        1 MOL      0.092563
    147 C48         8.6660    3.5510   -3.1100 c3        1 MOL     -0.022565
    148 N13         8.3370    5.0070   -3.3930 n4        1 MOL     -0.283000
    149 H67         6.0980    0.2270   -1.4510 hn        1 MOL      0.160331
    150 H68         7.6500    1.5570    0.5240 h1        1 MOL      0.084325
    151 H69         5.9060    3.4290   -0.0340 hc        1 MOL      0.070696
    152 H70         4.8720    2.1080   -0.6520 hc        1 MOL      0.070696
    153 H71         6.1200    3.7510   -2.1340 hc        1 MOL      0.023553
    154 H72         6.2920    1.9830   -2.5950 hc        1 MOL      0.023553
    155 H73         8.6510    1.9990   -1.6280 hc        1 MOL      0.044164
    156 H74         8.4770    3.6450   -1.0680 hc        1 MOL      0.044164
    157 H75         8.3650    2.8740   -3.9070 hx        1 MOL      0.074598
    158 H76         9.7470    3.4320   -3.0870 hx        1 MOL      0.074598
    159 H77         8.7370    5.6380   -2.7240 hn        1 MOL      0.314538
    160 H78         8.7930    5.2560   -4.2590 hn        1 MOL      0.314538
    161 H79         7.4040    5.1720   -3.7310 hn        1 MOL      0.314538
    162 N14         4.5770    0.6300    1.4830 n         1 MOL     -0.088371
    163 C49         3.8220    0.3350    2.6760 c3        1 MOL     -0.247857
    164 C50         4.5140   -0.7810    3.5180 c         1 MOL      0.483084
    165 O22         4.4400   -0.8040    4.7560 o         1 MOL     -0.542106
    166 C51         2.4180   -0.1540    2.1940 c3        1 MOL      0.054025
    167 C52         1.7310    1.0210    1.5420 c3        1 MOL      0.151216
    168 C53         0.4670    0.4530    0.7970 c         1 MOL      0.514237
    169 O23         0.6810   -0.2540   -0.1610 o         1 MOL     -0.616073
    170 O24        -0.6590    0.8920    1.0100 o         1 MOL     -0.616073
    171 H80         4.1640    0.4440    0.5750 hn        1 MOL      0.267916
    172 H81         3.6660    1.2730    3.2100 h1        1 MOL      0.131340
    173 H82         1.8730   -0.3150    3.1180 hc        1 MOL      0.023442
    174 H83         2.5520   -1.0810    1.6220 hc        1 MOL      0.023442
    175 H84         2.3670    1.5120    0.8080 hc        1 MOL     -0.018548
    176 H85         1.4580    1.7930    2.2610 hc        1 MOL     -0.018548
    177 N15         5.2600   -1.7100    2.8720 n         1 MOL      0.046377
    178 C54         5.9990   -2.6780    3.5810 c3        1 MOL     -0.321447
    179 H86         6.5660   -2.1920    4.3750 h1        1 MOL      0.105610
    180 H87         5.3180   -3.4070    4.0180 h1        1 MOL      0.105610
    181 H88         6.6860   -3.1820    2.9010 h1        1 MOL      0.105610
    182 H89         5.1730   -1.7060    1.8600 hn        1 MOL      0.036654
    183 Ca1        -1.9510   -0.0300   -1.1470 Ca        1 MOL      1.814113
    184 O25        -0.4190    1.2660   -2.8950 oh        1 MOL     -0.922548
    185 H90        -1.2020    1.7200   -3.2040 ho        1 MOL      0.436561
    186 H91         0.2960    1.8930   -3.0290 ho        1 MOL      0.436561
    187 O26        -1.3380   -1.8850   -2.9420 oh        1 MOL     -0.922548
    188 H92        -2.2480   -2.1890   -2.9290 ho        1 MOL      0.436561
    189 H93        -1.0750   -1.9500   -3.8630 ho        1 MOL      0.436561
@<TRIPOS>BOND
     1    1    2 1   
     2    1    4 1   
     3    1    5 1   
     4    1    6 1   
     5    2    3 2   
     6    2    7 1   
     7    7    8 1   
     8    7   15 1   
     9    8    9 1   
    10    8   11 1   
    11    8   16 1   
    12    9   10 2   
    13    9   19 1   
    14   11   12 1   
    15   11   17 1   
    16   11   18 1   
    17   12   13 1   
    18   12   14 1   
    19   19   20 1   
    20   19   28 1   
    21   20   21 1   
    22   20   23 1   
    23   20   29 1   
    24   21   22 2   
    25   21   41 1   
    26   23   24 1   
    27   23   30 1   
    28   23   31 1   
    29   24   25 1   
    30   24   32 1   
    31   24   33 1   
    32   25   26 1   
    33   25   34 1   
    34   25   35 1   
    35   26   27 1   
    36   26   36 1   
    37   26   37 1   
    38   27   38 1   
    39   27   39 1   
    40   27   40 1   
    41   41   42 1   
    42   41   49 1   
    43   42   43 1   
    44   42   45 1   
    45   42   50 1   
    46   43   44 2   
    47   43   53 1   
    48   45   46 1   
    49   45   51 1   
    50   45   52 1   
    51   46   47 1   
    52   46   48 1   
    53   53   54 1   
    54   53   57 1   
    55   54   55 1   
    56   54   58 1   
    57   54   59 1   
    58   55   56 2   
    59   55   60 1   
    60   60   61 1   
    61   60   68 1   
    62   61   62 1   
    63   61   64 1   
    64   61   69 1   
    65   62   63 2   
    66   62   72 1   
    67   64   65 1   
    68   64   70 1   
    69   64   71 1   
    70   65   66 1   
    71   65   67 1   
    72   72   73 1   
    73   72   76 1   
    74   73   74 1   
    75   73   77 1   
    76   73   78 1   
    77   74   75 2   
    78   74   79 1   
    79   79   80 1   
    80   79   86 1   
    81   80   81 1   
    82   80   83 1   
    83   80   87 1   
    84   81   82 2   
    85   81   93 1   
    86   83   84 1   
    87   83   85 1   
    88   83   88 1   
    89   84   90 1   
    90   84   91 1   
    91   84   92 1   
    92   85   89 1   
    93   93   94 1   
    94   93  101 1   
    95   94   95 1   
    96   94   97 1   
    97   94  102 1   
    98   95   96 2   
    99   95  112 1   
   100   97   98 1   
   101   97   99 1   
   102   97  103 1   
   103   98  100 1   
   104   98  104 1   
   105   98  105 1   
   106   99  106 1   
   107   99  107 1   
   108   99  108 1   
   109  100  109 1   
   110  100  110 1   
   111  100  111 1   
   112  112  113 1   
   113  112  119 1   
   114  113  114 1   
   115  113  116 1   
   116  113  120 1   
   117  114  115 2   
   118  114  126 1   
   119  116  117 1   
   120  116  118 1   
   121  116  121 1   
   122  117  123 1   
   123  117  124 1   
   124  117  125 1   
   125  118  122 1   
   126  126  127 1   
   127  126  133 1   
   128  127  128 1   
   129  127  130 1   
   130  127  134 1   
   131  128  129 2   
   132  128  140 1   
   133  130  131 1   
   134  130  132 1   
   135  130  135 1   
   136  131  137 1   
   137  131  138 1   
   138  131  139 1   
   139  132  136 1   
   140  140  141 1   
   141  140  149 1   
   142  141  142 1   
   143  141  144 1   
   144  141  150 1   
   145  142  143 2   
   146  142  162 1   
   147  144  145 1   
   148  144  151 1   
   149  144  152 1   
   150  145  146 1   
   151  145  153 1   
   152  145  154 1   
   153  146  147 1   
   154  146  155 1   
   155  146  156 1   
   156  147  148 1   
   157  147  157 1   
   158  147  158 1   
   159  148  159 1   
   160  148  160 1   
   161  148  161 1   
   162  162  163 1   
   163  162  171 1   
   164  163  164 1   
   165  163  166 1   
   166  163  172 1   
   167  164  165 2   
   168  164  177 1   
   169  166  167 1   
   170  166  173 1   
   171  166  174 1   
   172  167  168 1   
   173  167  175 1   
   174  167  176 1   
   175  168  169 1   
   176  168  170 1   
   177  177  178 1   
   178  177  182 1   
   179  178  179 1   
   180  178  180 1   
   181  178  181 1   
   182  184  185 1   
   183  184  186 1   
   184  187  188 1   
   185  187  189 1   
@<TRIPOS>SUBSTRUCTURE
     1 MOL         1 TEMP              0 ****  ****    0 ROOT
