@<TRIPOS>MOLECULE
MOL
  186   183     1     0     0
SMALL
resp


@<TRIPOS>ATOM
      1 C1         -1.0020    2.7880    5.9080 c3        1 MOL     -0.350522
      2 C2         -1.0140    2.4700    4.3820 c         1 MOL      0.708313
      3 O1         -0.0500    2.7450    3.5620 o         1 MOL     -0.641100
      4 H1         -0.1940    3.4850    6.1270 hc        1 MOL      0.093283
      5 H2         -1.9540    3.2350    6.1940 hc        1 MOL      0.093283
      6 H3         -0.8490    1.8660    6.4710 hc        1 MOL      0.093283
      7 N1         -2.1530    2.0360    3.8440 n         1 MOL     -0.538814
      8 C3         -2.5840    1.8610    2.4670 c3        1 MOL     -0.033058
      9 C4         -3.1370    3.0730    1.7220 c         1 MOL      0.616090
     10 O2         -4.0050    3.7670    2.2270 o         1 MOL     -0.609360
     11 C5         -3.5720    0.7280    2.3930 c3        1 MOL     -0.111874
     12 C6         -4.0860    0.5130    1.0050 c         1 MOL      0.822481
     13 O3         -5.3450    0.3270    0.8660 o         1 MOL     -0.733808
     14 O4         -3.3520    0.5530    0.0130 o         1 MOL     -0.733808
     15 H4         -2.8420    1.9390    4.5780 hn        1 MOL      0.293334
     16 H5         -1.7670    1.5680    1.8110 h1        1 MOL      0.068298
     17 H6         -4.4260    0.8690    3.0630 hc        1 MOL      0.028437
     18 H7         -3.1010   -0.1640    2.7940 hc        1 MOL      0.028437
     19 N2         -2.7200    3.3500    0.4880 n         1 MOL     -0.109776
     20 C7         -3.0090    4.5820   -0.3530 c3        1 MOL     -0.141234
     21 C8         -3.6560    4.2390   -1.7770 c         1 MOL      0.637935
     22 O5         -3.7900    5.0850   -2.6640 o         1 MOL     -0.567473
     23 C9         -1.6420    5.3240   -0.4370 c3        1 MOL     -0.089796
     24 C10        -1.0750    5.7460    0.9080 c3        1 MOL      0.033711
     25 C11        -1.9060    6.9420    1.2740 c3        1 MOL     -0.160689
     26 C12        -1.5480    7.4120    2.6950 c3        1 MOL      0.173067
     27 N3         -2.3750    8.5860    3.0300 n4        1 MOL     -0.415035
     28 H8         -2.1790    2.6790   -0.0220 hn        1 MOL      0.216714
     29 H9         -3.8360    5.1360    0.0950 h1        1 MOL      0.063741
     30 H10        -1.6630    6.1710   -1.1230 hc        1 MOL      0.056334
     31 H11        -0.9170    4.5810   -0.7490 hc        1 MOL      0.056334
     32 H12        -0.0550    6.1240    0.8360 hc        1 MOL      0.035767
     33 H13        -1.1900    4.9810    1.6650 hc        1 MOL      0.035767
     34 H14        -2.9700    6.7240    1.3250 hc        1 MOL      0.061959
     35 H15        -1.6650    7.7020    0.5310 hc        1 MOL      0.061959
     36 H16        -0.4810    7.6550    2.7410 hx        1 MOL      0.048926
     37 H17        -1.6820    6.5990    3.4080 hx        1 MOL      0.048926
     38 H18        -3.3250    8.4810    2.7010 hn        1 MOL      0.331016
     39 H19        -2.4190    8.7000    4.0360 hn        1 MOL      0.331016
     40 H20        -2.0550    9.4820    2.6750 hn        1 MOL      0.331016
     41 N4         -4.1560    3.0170   -1.9250 n         1 MOL     -0.316840
     42 C13        -4.8740    2.5060   -3.0100 c3        1 MOL     -0.020381
     43 C14        -6.3220    1.9500   -2.7420 c         1 MOL      0.391386
     44 O6         -7.2080    1.9370   -3.6210 o         1 MOL     -0.501191
     45 C15        -4.1460    1.3250   -3.7310 c3        1 MOL      0.106373
     46 C16        -2.6660    1.6320   -3.8440 c         1 MOL      0.587366
     47 O7         -2.1570    2.3320   -4.7400 o         1 MOL     -0.623398
     48 O8         -1.9090    1.1920   -2.9240 o         1 MOL     -0.623398
     49 H21        -3.9780    2.4320   -1.1210 hn        1 MOL      0.050439
     50 H22        -4.9970    3.3140   -3.7330 h1        1 MOL      0.101925
     51 H23        -4.5550    1.2620   -4.7400 hc        1 MOL     -0.018305
     52 H24        -4.2520    0.4350   -3.1150 hc        1 MOL     -0.018305
     53 N5         -6.6230    1.5470   -1.4570 n         1 MOL     -0.258080
     54 C17        -7.8870    0.9170   -1.0980 c3        1 MOL     -0.377584
     55 C18        -7.9400   -0.5720   -1.3310 c         1 MOL      0.578611
     56 O9         -9.0630   -1.1330   -1.4610 o         1 MOL     -0.591454
     57 H25        -5.8810    1.4930   -0.7610 hn        1 MOL      0.258111
     58 H26        -8.6370    1.3530   -1.7440 h1        1 MOL      0.164742
     59 H27        -8.0260    1.0320   -0.0160 h1        1 MOL      0.164742
     60 N6         -6.8080   -1.2150   -1.2580 n         1 MOL     -0.201249
     61 C19        -6.5930   -2.6000   -1.6060 c3        1 MOL     -0.153412
     62 C20        -6.4720   -3.5920   -0.4690 c         1 MOL      0.478534
     63 O10        -6.8280   -4.7620   -0.6810 o         1 MOL     -0.532083
     64 C21        -5.3950   -2.8620   -2.5240 c3        1 MOL      0.017794
     65 C22        -4.0490   -2.2560   -2.0910 c         1 MOL      0.564227
     66 O11        -3.2210   -1.8640   -2.9960 o         1 MOL     -0.744318
     67 O12        -3.8230   -2.0330   -0.9040 o         1 MOL     -0.744318
     68 H28        -6.0580   -0.7040   -0.8170 hn        1 MOL      0.257658
     69 H29        -7.4980   -2.8910   -2.1470 h1        1 MOL      0.126290
     70 H30        -5.6010   -2.4010   -3.4970 hc        1 MOL      0.036535
     71 H31        -5.3090   -3.9040   -2.8250 hc        1 MOL      0.036535
     72 N7         -6.0320   -3.1910    0.7510 n         1 MOL     -0.322172
     73 C23        -5.7180   -4.2060    1.8120 c3        1 MOL     -0.133020
     74 C24        -4.2330   -4.6910    1.8470 c         1 MOL      0.462734
     75 O13        -3.9330   -5.7080    2.5450 o         1 MOL     -0.572312
     76 H32        -5.7420   -2.2260    0.8450 hn        1 MOL      0.244269
     77 H33        -6.3720   -5.0540    1.6650 h1        1 MOL      0.104787
     78 H34        -5.8200   -3.7060    2.7730 h1        1 MOL      0.104787
     79 N8         -3.3510   -4.0900    1.0290 n         1 MOL     -0.124937
     80 C25        -1.9480   -4.5010    0.7460 c3        1 MOL     -0.049112
     81 C26        -1.0030   -3.4470    1.2460 c         1 MOL      0.355985
     82 O14        -1.1690   -2.2750    0.8610 o         1 MOL     -0.630600
     83 C27        -1.6500   -4.9220   -0.7490 c3        1 MOL      0.357775
     84 C28        -2.7370   -5.6680   -1.5900 c3        1 MOL     -0.502797
     85 O15        -1.3530   -3.7870   -1.4890 oh        1 MOL     -0.596212
     86 H35        -3.7150   -3.2990    0.5070 hn        1 MOL      0.249364
     87 H36        -1.7770   -5.3980    1.3540 h1        1 MOL      0.056133
     88 H37        -0.7560   -5.5480   -0.7890 h1        1 MOL     -0.017363
     89 H38        -1.1030   -4.1710   -2.3330 ho        1 MOL      0.402508
     90 H39        -2.2320   -6.1890   -2.4090 hc        1 MOL      0.141191
     91 H40        -3.2430   -6.3450   -0.9080 hc        1 MOL      0.141191
     92 H41        -3.3960   -4.9630   -2.1070 hc        1 MOL      0.141191
     93 N9          0.0830   -3.8420    1.9040 n         1 MOL     -0.348046
     94 C29         1.1660   -2.9510    2.3110 c3        1 MOL      0.107361
     95 C30         2.3820   -3.4110    1.5510 c         1 MOL      0.287752
     96 O16         3.0880   -4.3940    1.8400 o         1 MOL     -0.517049
     97 C31         1.2560   -2.7960    3.8280 c3        1 MOL     -0.130181
     98 C32         0.0260   -2.4950    4.7000 c3        1 MOL      0.192923
     99 C33         2.5100   -1.8390    3.9470 c3        1 MOL     -0.057630
    100 C34        -0.5490   -1.0930    4.3800 c3        1 MOL     -0.110698
    101 H42         0.1280   -4.8080    2.1870 hn        1 MOL      0.298752
    102 H43         0.9580   -1.9090    2.0570 h1        1 MOL      0.089902
    103 H44         1.5890   -3.7600    4.2120 hc        1 MOL      0.026039
    104 H45         0.3140   -2.5530    5.7480 hc        1 MOL     -0.030040
    105 H46        -0.7490   -3.2520    4.6490 hc        1 MOL     -0.030040
    106 H47         2.1710   -0.8660    3.5980 hc        1 MOL      0.018081
    107 H48         2.6960   -1.5020    4.9710 hc        1 MOL      0.018081
    108 H49         3.4640   -2.2320    3.5860 hc        1 MOL      0.018081
    109 H50        -0.7520   -1.1110    3.3110 hc        1 MOL      0.037341
    110 H51        -1.4760   -1.0780    4.9680 hc        1 MOL      0.037341
    111 H52         0.0880   -0.2530    4.6600 hc        1 MOL      0.037341
    112 N10         2.6960   -2.6320    0.5560 n         1 MOL     -0.099472
    113 C35         3.8720   -2.8130   -0.3290 c3        1 MOL     -0.080261
    114 C36         5.1290   -2.3400    0.3930 c         1 MOL      0.262181
    115 O17         5.0640   -1.5600    1.3300 o         1 MOL     -0.206116
    116 C37         3.6470   -2.0880   -1.6980 c3        1 MOL      0.237842
    117 C38         2.3910   -2.5490   -2.4610 c3        1 MOL     -0.272399
    118 O18         3.5400   -0.7190   -1.4400 oh        1 MOL     -0.540758
    119 H53         2.2660   -1.7220    0.6190 hn        1 MOL      0.282459
    120 H54         3.9970   -3.8880   -0.4610 h1        1 MOL      0.094254
    121 H55         4.5610   -2.1670   -2.2800 h1        1 MOL      0.012274
    122 H56         2.6660   -0.6050   -1.0490 ho        1 MOL      0.429724
    123 H57         1.5530   -2.6200   -1.7720 hc        1 MOL      0.061559
    124 H58         2.1270   -1.8870   -3.2810 hc        1 MOL      0.061559
    125 H59         2.6410   -3.5610   -2.7820 hc        1 MOL      0.061559
    126 N11         6.2940   -2.5140   -0.2830 n         1 MOL     -0.250820
    127 C39         7.5190   -1.8180    0.0650 c3        1 MOL     -0.204121
    128 C40         7.3160   -0.2910   -0.0760 c         1 MOL      0.461313
    129 O19         7.8760    0.4600    0.6870 o         1 MOL     -0.493490
    130 C41         8.7390   -2.1940   -0.7520 c3        1 MOL      0.225037
    131 C42         9.1360   -3.6490   -0.5050 c3        1 MOL     -0.316213
    132 O20         8.3420   -2.1480   -2.0940 oh        1 MOL     -0.639832
    133 H60         6.3580   -3.1870   -1.0290 hn        1 MOL      0.273181
    134 H61         7.7440   -2.0430    1.1000 h1        1 MOL      0.161354
    135 H62         9.5870   -1.5780   -0.4630 h1        1 MOL      0.069217
    136 H63         9.0920   -2.2470   -2.6850 ho        1 MOL      0.418117
    137 H64         9.3940   -3.7960    0.5440 hc        1 MOL      0.095358
    138 H65         8.3700   -4.3680   -0.8030 hc        1 MOL      0.095358
    139 H66        10.0580   -3.9220   -1.0100 hc        1 MOL      0.095358
    140 N12         6.4940    0.1330   -1.0380 n         1 MOL     -0.185666
    141 C43         6.1890    1.5610   -1.3150 c3        1 MOL     -0.135908
    142 C44         5.3890    2.2920   -0.2250 c         1 MOL      0.555029
    143 O21         5.3210    3.5400   -0.2100 o         1 MOL     -0.591241
    144 C45         5.6050    1.7620   -2.7040 c3        1 MOL     -0.154298
    145 C46         6.5410    1.4310   -3.8690 c3        1 MOL      0.097314
    146 C47         7.8400    2.2370   -3.9380 c3        1 MOL     -0.057709
    147 C48         8.6060    2.0460   -5.2850 c3        1 MOL      0.110264
    148 N13         9.9740    2.6260   -5.3120 n4        1 MOL     -0.346239
    149 H67         5.9680   -0.5240   -1.6130 hn        1 MOL      0.287315
    150 H68         7.1550    2.0820   -1.3110 h1        1 MOL      0.081752
    151 H69         5.3260    2.8090   -2.8470 hc        1 MOL      0.091746
    152 H70         4.6280    1.2920   -2.7560 hc        1 MOL      0.091746
    153 H71         5.9700    1.5160   -4.7910 hc        1 MOL     -0.008236
    154 H72         6.7090    0.3610   -3.7990 hc        1 MOL     -0.008236
    155 H73         8.4970    1.8270   -3.1760 hc        1 MOL      0.043416
    156 H74         7.5150    3.2600   -3.7590 hc        1 MOL      0.043416
    157 H75         8.0310    2.4700   -6.1100 hx        1 MOL      0.049884
    158 H76         8.6340    0.9590   -5.4070 hx        1 MOL      0.049884
    159 H77         9.9340    3.5940   -5.5860 hn        1 MOL      0.282136
    160 H78        10.3830    2.4760   -4.3960 hn        1 MOL      0.282136
    161 H79        10.5860    2.1370   -5.9510 hn        1 MOL      0.282136
    162 N14         4.9310    1.5890    0.8240 n         1 MOL      0.073328
    163 C49         4.0850    1.9760    1.9310 c3        1 MOL     -0.146292
    164 C50         4.6630    1.4660    3.2890 c         1 MOL      0.439904
    165 O22         4.3840    2.1160    4.3200 o         1 MOL     -0.543955
    166 C51         2.7430    1.2680    1.6760 c3        1 MOL      0.069072
    167 C52         2.1050    1.7530    0.3490 c3        1 MOL     -0.046585
    168 C53         0.9270    0.8640    0.0550 c         1 MOL      0.767035
    169 O23        -0.2260    1.3280   -0.1830 o         1 MOL     -0.819614
    170 O24         1.0610   -0.3580   -0.1620 o         1 MOL     -0.819614
    171 H80         5.2010    0.6280    0.6780 hn        1 MOL     -0.377096
    172 H81         3.9800    3.0610    1.9520 h1        1 MOL      0.123375
    173 H82         2.0600    1.5160    2.4890 hc        1 MOL      0.062526
    174 H83         2.7730    0.1840    1.6490 hc        1 MOL      0.062526
    175 H84         2.7970    1.5920   -0.4750 hc        1 MOL      0.009581
    176 H85         1.8580    2.8100    0.3280 hc        1 MOL      0.009581
    177 N15         5.3150    0.2940    3.3630 n         1 MOL     -0.098769
    178 C54         5.8930   -0.2170    4.5770 c3        1 MOL     -0.172382
    179 H86         5.8600    0.5540    5.3480 h1        1 MOL      0.073286
    180 H87         5.3290   -1.0880    4.9110 h1        1 MOL      0.073286
    181 H88         6.9300   -0.5020    4.3940 h1        1 MOL      0.073286
    182 H89         5.1600   -0.4070    2.6550 hn        1 MOL      0.149068
    183 Ca1        -1.5050   -0.7230   -1.2590 Ca        1 MOL      1.858341
    184 O25        -0.2120   -1.1310   -3.6670 oh        1 MOL     -0.953467
    185 H90        -0.7600   -0.7130   -4.3360 ho        1 MOL      0.444990
    186 H91         0.4340   -1.6330   -4.1640 ho        1 MOL      0.444990
@<TRIPOS>BOND
     1    1    2 1   
     2    1    4 1   
     3    1    5 1   
     4    1    6 1   
     5    2    3 2   
     6    2    7 1   
     7    7    8 1   
     8    7   15 1   
     9    8    9 1   
    10    8   11 1   
    11    8   16 1   
    12    9   10 2   
    13    9   19 1   
    14   11   12 1   
    15   11   17 1   
    16   11   18 1   
    17   12   13 1   
    18   12   14 1   
    19   19   20 1   
    20   19   28 1   
    21   20   21 1   
    22   20   23 1   
    23   20   29 1   
    24   21   22 2   
    25   21   41 1   
    26   23   24 1   
    27   23   30 1   
    28   23   31 1   
    29   24   25 1   
    30   24   32 1   
    31   24   33 1   
    32   25   26 1   
    33   25   34 1   
    34   25   35 1   
    35   26   27 1   
    36   26   36 1   
    37   26   37 1   
    38   27   38 1   
    39   27   39 1   
    40   27   40 1   
    41   41   42 1   
    42   41   49 1   
    43   42   43 1   
    44   42   45 1   
    45   42   50 1   
    46   43   44 2   
    47   43   53 1   
    48   45   46 1   
    49   45   51 1   
    50   45   52 1   
    51   46   47 1   
    52   46   48 1   
    53   53   54 1   
    54   53   57 1   
    55   54   55 1   
    56   54   58 1   
    57   54   59 1   
    58   55   56 2   
    59   55   60 1   
    60   60   61 1   
    61   60   68 1   
    62   61   62 1   
    63   61   64 1   
    64   61   69 1   
    65   62   63 2   
    66   62   72 1   
    67   64   65 1   
    68   64   70 1   
    69   64   71 1   
    70   65   66 1   
    71   65   67 1   
    72   72   73 1   
    73   72   76 1   
    74   73   74 1   
    75   73   77 1   
    76   73   78 1   
    77   74   75 2   
    78   74   79 1   
    79   79   80 1   
    80   79   86 1   
    81   80   81 1   
    82   80   83 1   
    83   80   87 1   
    84   81   82 2   
    85   81   93 1   
    86   83   84 1   
    87   83   85 1   
    88   83   88 1   
    89   84   90 1   
    90   84   91 1   
    91   84   92 1   
    92   85   89 1   
    93   93   94 1   
    94   93  101 1   
    95   94   95 1   
    96   94   97 1   
    97   94  102 1   
    98   95   96 2   
    99   95  112 1   
   100   97   98 1   
   101   97   99 1   
   102   97  103 1   
   103   98  100 1   
   104   98  104 1   
   105   98  105 1   
   106   99  106 1   
   107   99  107 1   
   108   99  108 1   
   109  100  109 1   
   110  100  110 1   
   111  100  111 1   
   112  112  113 1   
   113  112  119 1   
   114  113  114 1   
   115  113  116 1   
   116  113  120 1   
   117  114  115 2   
   118  114  126 1   
   119  116  117 1   
   120  116  118 1   
   121  116  121 1   
   122  117  123 1   
   123  117  124 1   
   124  117  125 1   
   125  118  122 1   
   126  126  127 1   
   127  126  133 1   
   128  127  128 1   
   129  127  130 1   
   130  127  134 1   
   131  128  129 2   
   132  128  140 1   
   133  130  131 1   
   134  130  132 1   
   135  130  135 1   
   136  131  137 1   
   137  131  138 1   
   138  131  139 1   
   139  132  136 1   
   140  140  141 1   
   141  140  149 1   
   142  141  142 1   
   143  141  144 1   
   144  141  150 1   
   145  142  143 2   
   146  142  162 1   
   147  144  145 1   
   148  144  151 1   
   149  144  152 1   
   150  145  146 1   
   151  145  153 1   
   152  145  154 1   
   153  146  147 1   
   154  146  155 1   
   155  146  156 1   
   156  147  148 1   
   157  147  157 1   
   158  147  158 1   
   159  148  159 1   
   160  148  160 1   
   161  148  161 1   
   162  162  163 1   
   163  162  171 1   
   164  163  164 1   
   165  163  166 1   
   166  163  172 1   
   167  164  165 2   
   168  164  177 1   
   169  166  167 1   
   170  166  173 1   
   171  166  174 1   
   172  167  168 1   
   173  167  175 1   
   174  167  176 1   
   175  168  169 1   
   176  168  170 1   
   177  177  178 1   
   178  177  182 1   
   179  178  179 1   
   180  178  180 1   
   181  178  181 1   
   182  184  185 1   
   183  184  186 1   
@<TRIPOS>SUBSTRUCTURE
     1 MOL         1 TEMP              0 ****  ****    0 ROOT
