@<TRIPOS>MOLECULE
MOL
  176   174     1     0     0
SMALL
resp


@<TRIPOS>ATOM
      1 C1          0.4510    3.9920    6.2840 c3        1 MOL     -0.337912
      2 C2          0.1990    3.2410    4.9610 c         1 MOL      0.801571
      3 O1          1.2170    2.8200    4.4850 o         1 MOL     -0.570809
      4 H1         -0.4180    3.8850    6.9330 hc        1 MOL      0.079287
      5 H2          1.3280    3.5730    6.7790 hc        1 MOL      0.079287
      6 H3          0.6210    5.0480    6.0750 hc        1 MOL      0.079287
      7 N1         -1.0830    3.1260    4.4810 n         1 MOL     -0.822790
      8 C3         -1.3620    2.7200    3.0840 c3        1 MOL      0.520201
      9 C4         -1.3760    3.9960    2.1640 c         1 MOL      0.438059
     10 O2         -2.0070    5.0110    2.4130 o         1 MOL     -0.532392
     11 C5         -2.5720    1.8310    3.0110 c3        1 MOL     -0.329504
     12 C6         -2.8760    1.2660    1.6540 c         1 MOL      0.953065
     13 O3         -2.9170    1.9900    0.6380 o         1 MOL     -0.858137
     14 O4         -2.8770    0.0200    1.4550 o         1 MOL     -0.858137
     15 H4         -1.8420    3.4160    5.0820 hn        1 MOL      0.369759
     16 H5         -0.5200    2.1910    2.6410 h1        1 MOL     -0.077587
     17 H6         -3.4340    2.4750    3.2160 hc        1 MOL      0.048770
     18 H7         -2.3320    1.0930    3.7740 hc        1 MOL      0.048770
     19 N2         -0.7220    3.7320    1.0320 n         1 MOL     -0.332620
     20 C7         -0.6910    4.7740    0.0060 c3        1 MOL     -0.225408
     21 C8         -1.9670    5.1220   -0.6850 c         1 MOL      0.691078
     22 O5         -2.0920    6.2410   -1.1750 o         1 MOL     -0.614539
     23 C9          0.3800    4.2790   -1.0360 c3        1 MOL      0.393195
     24 C10         0.9260    5.4000   -1.8710 c3        1 MOL     -0.476301
     25 C11         2.3300    5.0640   -2.4980 c3        1 MOL      0.194229
     26 C12         2.8070    6.1750   -3.5120 c3        1 MOL      0.113084
     27 N3          3.9740    5.8640   -4.3170 n4        1 MOL     -0.502272
     28 H8         -0.3030    2.8280    0.8580 hn        1 MOL      0.207975
     29 H9         -0.3590    5.7070    0.4710 h1        1 MOL      0.119074
     30 H10        -0.1460    3.5580   -1.6650 hc        1 MOL      0.012788
     31 H11         1.1260    3.8160   -0.3940 hc        1 MOL      0.012788
     32 H12         0.9990    6.2630   -1.2110 hc        1 MOL      0.104642
     33 H13         0.1430    5.4820   -2.6320 hc        1 MOL      0.104642
     34 H14         2.1840    4.0950   -2.9750 hc        1 MOL     -0.041302
     35 H15         3.1340    4.8390   -1.8050 hc        1 MOL     -0.041302
     36 H16         2.9710    7.1050   -2.9800 hx        1 MOL      0.066665
     37 H17         1.9600    6.3880   -4.1700 hx        1 MOL      0.066665
     38 H18         4.7100    5.3660   -3.8480 hn        1 MOL      0.362425
     39 H19         3.6700    5.2500   -5.0610 hn        1 MOL      0.362425
     40 H20         4.3960    6.7310   -4.6360 hn        1 MOL      0.362425
     41 N4         -2.9420    4.2200   -0.8040 n         1 MOL     -0.405250
     42 C13        -4.0750    4.2630   -1.7790 c3        1 MOL      0.006938
     43 C14        -5.4410    3.7390   -1.2760 c         1 MOL      0.552266
     44 O6         -6.4720    3.9760   -1.9680 o         1 MOL     -0.558225
     45 C15        -3.7180    3.4330   -2.9890 c3        1 MOL     -0.255620
     46 C16        -3.1250    2.0990   -2.7070 c         1 MOL      0.787632
     47 O7         -3.8280    1.0860   -2.4520 o         1 MOL     -0.731139
     48 O8         -1.8890    2.0490   -2.5370 o         1 MOL     -0.731139
     49 H21        -2.7030    3.2960   -0.4720 hn        1 MOL      0.201719
     50 H22        -4.2540    5.3160   -2.0160 h1        1 MOL      0.123100
     51 H23        -2.9110    4.0020   -3.4520 hc        1 MOL      0.066223
     52 H24        -4.5000    3.3100   -3.7390 hc        1 MOL      0.066223
     53 N5         -5.4710    3.1350   -0.0770 n         1 MOL     -0.445130
     54 C17        -6.7210    2.6260    0.4370 c3        1 MOL     -0.001321
     55 C18        -7.0820    1.1090    0.2520 c         1 MOL      0.476288
     56 O9         -7.8580    0.5460    0.9740 o         1 MOL     -0.556485
     57 H25        -4.6500    2.8750    0.4520 hn        1 MOL      0.334893
     58 H26        -7.5870    3.2350    0.1670 h1        1 MOL      0.069137
     59 H27        -6.8130    2.6580    1.5150 h1        1 MOL      0.069137
     60 N6         -6.2860    0.3880   -0.5640 n         1 MOL     -0.305335
     61 C19        -6.7570   -0.9520   -1.0530 c3        1 MOL     -0.033657
     62 C20        -6.6910   -2.0810   -0.0190 c         1 MOL      0.449810
     63 O10        -7.2670   -3.1540   -0.2240 o         1 MOL     -0.549872
     64 C21        -5.8560   -1.2360   -2.3010 c3        1 MOL     -0.194163
     65 C22        -4.5600   -1.9260   -1.9670 c         1 MOL      0.652610
     66 N7         -4.3730   -3.1140   -2.5110 n         1 MOL     -0.677354
     67 O11        -3.8200   -1.6170   -1.0550 o         1 MOL     -0.839908
     68 H28        -5.5960    0.8930   -1.1140 hn        1 MOL      0.227797
     69 H29        -7.8040   -0.8030   -1.3130 h1        1 MOL      0.120421
     70 H30        -5.7390   -0.3300   -2.9010 hc        1 MOL      0.089745
     71 H31        -6.4340   -1.8760   -2.9780 hc        1 MOL      0.089745
     72 H32        -4.9650   -3.4560   -3.2520 hn        1 MOL      0.333893
     73 H33        -3.5520   -3.6480   -2.2480 hn        1 MOL      0.333893
     74 N8         -6.0690   -1.7240    1.0850 n         1 MOL     -0.047334
     75 C23        -5.9820   -2.6670    2.1740 c3        1 MOL     -0.309423
     76 C24        -4.5770   -3.2990    2.4560 c         1 MOL      0.607985
     77 O12        -4.4360   -4.0260    3.4230 o         1 MOL     -0.566703
     78 H34        -5.6420   -0.8160    1.1530 hn        1 MOL      0.231333
     79 H35        -6.7760   -3.4090    2.1470 h1        1 MOL      0.130904
     80 H36        -6.1390   -2.1480    3.1100 h1        1 MOL      0.130904
     81 N9         -3.6080   -3.1840    1.5660 n         1 MOL     -0.515244
     82 C25        -2.2340   -3.7280    1.7830 c3        1 MOL      0.134121
     83 C26        -1.0860   -2.8180    1.4760 c         1 MOL      0.677799
     84 O13        -1.0840   -2.0120    0.5420 o         1 MOL     -0.687886
     85 C27        -2.0600   -5.1350    1.1460 c3        1 MOL     -0.417945
     86 C28        -2.0050   -5.3280   -0.3300 ca        1 MOL      0.265603
     87 C29        -0.7930   -4.9390   -0.9990 ca        1 MOL     -0.211750
     88 C30        -3.0440   -5.9260   -0.9860 ca        1 MOL     -0.211750
     89 C31        -0.7370   -5.1430   -2.3750 ca        1 MOL     -0.229328
     90 C32        -2.9330   -6.2340   -2.3410 ca        1 MOL     -0.229328
     91 C33        -1.7770   -5.8230   -3.0830 ca        1 MOL      0.216116
     92 O14        -1.6300   -6.2950   -4.3820 oh        1 MOL     -0.458054
     93 H37        -3.7080   -2.6460    0.7230 hn        1 MOL      0.464395
     94 H38        -2.1240   -3.8880    2.8590 h1        1 MOL      0.080322
     95 H39        -2.8950   -5.7650    1.4640 hc        1 MOL      0.130879
     96 H40        -1.1080   -5.5310    1.4930 hc        1 MOL      0.130879
     97 H41        -0.0710   -4.4740   -0.3540 ha        1 MOL      0.160091
     98 H42        -3.9240   -6.2210   -0.4260 ha        1 MOL      0.160091
     99 H43         0.2210   -5.0360   -2.8470 ha        1 MOL      0.165848
    100 H44        -3.6540   -6.8680   -2.8360 ha        1 MOL      0.165848
    101 H45        -0.7630   -5.9880   -4.6440 ho        1 MOL      0.355370
    102 N10         0.0480   -2.9250    2.1670 n         1 MOL     -0.538240
    103 C34         1.3850   -2.3080    1.7980 c3        1 MOL      0.001935
    104 C35         2.3410   -3.3570    1.1220 c         1 MOL      0.456339
    105 O15         2.5730   -4.4100    1.6640 o         1 MOL     -0.521000
    106 C36         2.0810   -1.5760    2.9610 c3        1 MOL      0.299376
    107 C37         2.2740   -2.4810    4.1470 c3        1 MOL     -0.066017
    108 C38         1.0990   -0.3870    3.4120 c3        1 MOL     -0.276918
    109 C39         3.3090   -1.9350    5.2040 c3        1 MOL     -0.231123
    110 H46        -0.0030   -3.4160    3.0480 hn        1 MOL      0.274203
    111 H47         1.2650   -1.5840    0.9940 h1        1 MOL      0.102017
    112 H48         3.0190   -1.1240    2.6400 hc        1 MOL     -0.079766
    113 H49         2.7850   -3.3880    3.8090 hc        1 MOL      0.035960
    114 H50         1.3240   -2.8150    4.5730 hc        1 MOL      0.035960
    115 H51         0.1140   -0.7620    3.7120 hc        1 MOL      0.088649
    116 H52         1.5230    0.1260    4.2680 hc        1 MOL      0.088649
    117 H53         0.8340    0.2740    2.5800 hc        1 MOL      0.088649
    118 H54         3.6790   -2.7480    5.8260 hc        1 MOL      0.062667
    119 H55         4.0800   -1.5610    4.5260 hc        1 MOL      0.062667
    120 H56         2.8740   -1.2160    5.9010 hc        1 MOL      0.062667
    121 N11         3.0060   -2.9140    0.0750 n         1 MOL     -0.326909
    122 C40         4.2420   -3.5010   -0.4310 c3        1 MOL      0.128036
    123 C41         5.4570   -2.6340   -0.1430 c         1 MOL      0.361975
    124 O16         5.3330   -1.5950    0.4850 o         1 MOL     -0.365661
    125 C42         4.1730   -3.6610   -1.8770 c3        1 MOL      0.287352
    126 O17         3.1150   -4.4260   -2.4520 oh        1 MOL     -0.602987
    127 H57         2.5160   -2.3010   -0.5570 hn        1 MOL      0.185695
    128 H58         4.4120   -4.4510    0.0700 h1        1 MOL      0.080035
    129 H59         5.0900   -4.1920   -2.1370 h1        1 MOL     -0.002720
    130 H60         4.2450   -2.7390   -2.4580 h1        1 MOL     -0.002720
    131 H61         2.3690   -3.8240   -2.5770 ho        1 MOL      0.343260
    132 N12         6.7550   -3.0740   -0.4190 n         1 MOL     -0.496741
    133 C43         7.9490   -2.4200    0.1830 c3        1 MOL      0.233263
    134 C44         8.1780   -0.9960   -0.3660 c         1 MOL      0.344959
    135 O18         8.7690   -0.1590    0.2810 o         1 MOL     -0.489025
    136 C45         9.1840   -3.2310   -0.0000 c3        1 MOL     -0.501841
    137 H62         6.8660   -3.9980   -0.8180 hn        1 MOL      0.286018
    138 H63         7.7330   -2.3500    1.2470 h1        1 MOL      0.096210
    139 H64         9.2850   -3.5550   -1.0410 hc        1 MOL      0.149291
    140 H65        10.0530   -2.5850    0.0960 hc        1 MOL      0.149291
    141 H66         9.1420   -4.0810    0.6770 hc        1 MOL      0.149291
    142 N13         7.6250   -0.6710   -1.5400 n         1 MOL     -0.130923
    143 C46         7.7640    0.6230   -2.1630 c3        1 MOL      0.130603
    144 C47         6.8060    1.6190   -1.5190 c         1 MOL      0.384571
    145 O19         7.2250    2.7180   -1.0970 o         1 MOL     -0.500609
    146 C48         7.5020    0.4700   -3.6820 c3        1 MOL     -0.286443
    147 H67         7.1310   -1.3620   -2.0730 hn        1 MOL      0.093420
    148 H68         8.7810    0.9610   -2.0000 h1        1 MOL      0.074513
    149 H69         8.2070   -0.2850   -4.0260 hc        1 MOL      0.079449
    150 H70         6.4940    0.2130   -3.9990 hc        1 MOL      0.079449
    151 H71         7.7590    1.4170   -4.1520 hc        1 MOL      0.079449
    152 N14         5.5400    1.2530   -1.3190 n         1 MOL     -0.357549
    153 C49         4.7210    2.0310   -0.3630 c3        1 MOL     -0.120146
    154 C50         5.0850    1.9660    1.1390 c         1 MOL      0.487236
    155 O20         4.7810    2.9270    1.8510 o         1 MOL     -0.555547
    156 C51         3.2030    1.7850   -0.6490 c3        1 MOL      0.136653
    157 C52         2.6220    0.3950   -0.3730 c3        1 MOL      0.183420
    158 C53         1.1200    0.5030   -0.6440 c         1 MOL      0.500367
    159 O21         0.5940   -0.0470   -1.6270 o         1 MOL     -0.697578
    160 O22         0.3960    1.2580   -0.0030 o         1 MOL     -0.697578
    161 H72         5.0550    0.5680   -1.8750 hn        1 MOL      0.240484
    162 H73         4.8680    3.0870   -0.5650 h1        1 MOL      0.095888
    163 H74         3.0420    2.1460   -1.6620 hc        1 MOL     -0.013620
    164 H75         2.7060    2.4830    0.0340 hc        1 MOL     -0.013620
    165 H76         2.7930    0.0680    0.6520 hc        1 MOL     -0.078340
    166 H77         2.9710   -0.2940   -1.1430 hc        1 MOL     -0.078340
    167 N15         5.7590    0.9620    1.6670 n         1 MOL     -0.028776
    168 C54         6.4610    1.0790    2.9580 c3        1 MOL     -0.118272
    169 H78         7.5160    0.8420    2.8210 h1        1 MOL      0.067825
    170 H79         6.3640    2.0970    3.3350 h1        1 MOL      0.067825
    171 H80         6.0230    0.3840    3.6740 h1        1 MOL      0.067825
    172 H81         5.9160    0.1780    1.0530 hn        1 MOL      0.075795
    173 Ca1        -1.8550    0.0480   -0.9120 Ca        1 MOL      1.855454
    174 O23        -1.8730   -1.0360   -3.4490 oh        1 MOL     -0.839252
    175 H82        -1.2470   -1.5610   -3.9610 ho        1 MOL      0.400931
    176 H83        -2.6950   -1.1130   -3.9340 ho        1 MOL      0.400931
@<TRIPOS>BOND
     1    1    2 1   
     2    1    4 1   
     3    1    5 1   
     4    1    6 1   
     5    2    3 2   
     6    2    7 1   
     7    7    8 1   
     8    7   15 1   
     9    8    9 1   
    10    8   11 1   
    11    8   16 1   
    12    9   10 2   
    13    9   19 1   
    14   11   12 1   
    15   11   17 1   
    16   11   18 1   
    17   12   13 1   
    18   12   14 1   
    19   19   20 1   
    20   19   28 1   
    21   20   21 1   
    22   20   23 1   
    23   20   29 1   
    24   21   22 2   
    25   21   41 1   
    26   23   24 1   
    27   23   30 1   
    28   23   31 1   
    29   24   25 1   
    30   24   32 1   
    31   24   33 1   
    32   25   26 1   
    33   25   34 1   
    34   25   35 1   
    35   26   27 1   
    36   26   36 1   
    37   26   37 1   
    38   27   38 1   
    39   27   39 1   
    40   27   40 1   
    41   41   42 1   
    42   41   49 1   
    43   42   43 1   
    44   42   45 1   
    45   42   50 1   
    46   43   44 2   
    47   43   53 1   
    48   45   46 1   
    49   45   51 1   
    50   45   52 1   
    51   46   47 1   
    52   46   48 1   
    53   53   54 1   
    54   53   57 1   
    55   54   55 1   
    56   54   58 1   
    57   54   59 1   
    58   55   56 2   
    59   55   60 1   
    60   60   61 1   
    61   60   68 1   
    62   61   62 1   
    63   61   64 1   
    64   61   69 1   
    65   62   63 2   
    66   62   74 1   
    67   64   65 1   
    68   64   70 1   
    69   64   71 1   
    70   65   66 1   
    71   65   67 2   
    72   66   72 1   
    73   66   73 1   
    74   74   75 1   
    75   74   78 1   
    76   75   76 1   
    77   75   79 1   
    78   75   80 1   
    79   76   77 2   
    80   76   81 1   
    81   81   82 1   
    82   81   93 1   
    83   82   83 1   
    84   82   85 1   
    85   82   94 1   
    86   83   84 2   
    87   83  102 1   
    88   85   86 1   
    89   85   95 1   
    90   85   96 1   
    91   86   87 ar  
    92   86   88 ar  
    93   87   89 ar  
    94   87   97 1   
    95   88   90 ar  
    96   88   98 1   
    97   89   91 ar  
    98   89   99 1   
    99   90   91 ar  
   100   90  100 1   
   101   91   92 1   
   102   92  101 1   
   103  102  103 1   
   104  102  110 1   
   105  103  104 1   
   106  103  106 1   
   107  103  111 1   
   108  104  105 2   
   109  104  121 1   
   110  106  107 1   
   111  106  108 1   
   112  106  112 1   
   113  107  109 1   
   114  107  113 1   
   115  107  114 1   
   116  108  115 1   
   117  108  116 1   
   118  108  117 1   
   119  109  118 1   
   120  109  119 1   
   121  109  120 1   
   122  121  122 1   
   123  121  127 1   
   124  122  123 1   
   125  122  125 1   
   126  122  128 1   
   127  123  124 2   
   128  123  132 1   
   129  125  126 1   
   130  125  129 1   
   131  125  130 1   
   132  126  131 1   
   133  132  133 1   
   134  132  137 1   
   135  133  134 1   
   136  133  136 1   
   137  133  138 1   
   138  134  135 2   
   139  134  142 1   
   140  136  139 1   
   141  136  140 1   
   142  136  141 1   
   143  142  143 1   
   144  142  147 1   
   145  143  144 1   
   146  143  146 1   
   147  143  148 1   
   148  144  145 2   
   149  144  152 1   
   150  146  149 1   
   151  146  150 1   
   152  146  151 1   
   153  152  153 1   
   154  152  161 1   
   155  153  154 1   
   156  153  156 1   
   157  153  162 1   
   158  154  155 2   
   159  154  167 1   
   160  156  157 1   
   161  156  163 1   
   162  156  164 1   
   163  157  158 1   
   164  157  165 1   
   165  157  166 1   
   166  158  159 1   
   167  158  160 1   
   168  167  168 1   
   169  167  172 1   
   170  168  169 1   
   171  168  170 1   
   172  168  171 1   
   173  174  175 1   
   174  174  176 1   
@<TRIPOS>SUBSTRUCTURE
     1 MOL         1 TEMP              0 ****  ****    0 ROOT
