@<TRIPOS>MOLECULE
MOL
  189   185     1     0     0
SMALL
resp


@<TRIPOS>ATOM
      1 C1          0.0170   -4.5450    5.3700 c3        1 MOL     -0.398011
      2 C2          0.2680   -4.5810    3.9120 c         1 MOL      0.778197
      3 O1         -0.5390   -4.1540    3.1100 o         1 MOL     -0.578166
      4 H1          0.9170   -4.8570    5.9010 hc        1 MOL      0.093715
      5 H2         -0.2470   -3.5310    5.6700 hc        1 MOL      0.093715
      6 H3         -0.8020   -5.2220    5.6150 hc        1 MOL      0.093715
      7 N1          1.5070   -4.9020    3.4920 n         1 MOL     -0.706337
      8 C3          2.1290   -4.3540    2.2580 c3        1 MOL      0.354348
      9 C4          1.9040   -5.3140    1.0960 c         1 MOL      0.484265
     10 O2          1.9890   -6.5550    1.2810 o         1 MOL     -0.587733
     11 C5          3.5720   -4.0890    2.5670 c3        1 MOL     -0.383614
     12 C6          4.2650   -3.1770    1.5820 c         1 MOL      0.920409
     13 O3          3.5870   -2.7410    0.5980 o         1 MOL     -0.733521
     14 O4          5.4670   -2.7970    1.7900 o         1 MOL     -0.733521
     15 H4          2.1430   -5.2660    4.1880 hn        1 MOL      0.331392
     16 H5          1.6860   -3.3780    2.0870 h1        1 MOL      0.018163
     17 H6          4.1330   -5.0210    2.6490 hc        1 MOL      0.061962
     18 H7          3.5270   -3.6580    3.5710 hc        1 MOL      0.061962
     19 N2          1.7190   -4.8410   -0.1360 n         1 MOL     -0.234456
     20 C7          1.5880   -5.5760   -1.3910 c3        1 MOL     -0.201024
     21 C8          2.5520   -5.1020   -2.5180 c         1 MOL      0.494308
     22 O5          2.5640   -5.6430   -3.6250 o         1 MOL     -0.558273
     23 C9          0.1040   -5.6650   -1.8660 c3        1 MOL      0.247175
     24 C10        -0.6090   -4.3210   -1.7300 c3        1 MOL      0.034180
     25 C11        -0.6030   -6.9390   -1.3060 c3        1 MOL     -0.309291
     26 C12        -1.8030   -4.0020   -2.5890 c3        1 MOL     -0.291939
     27 H8          1.7220   -3.8300   -0.1520 hn        1 MOL      0.107242
     28 H9          1.8720   -6.6010   -1.1560 h1        1 MOL      0.126227
     29 H10         0.0780   -5.8610   -2.9420 hc        1 MOL     -0.037844
     30 H11         0.1120   -3.5830   -2.0810 hc        1 MOL      0.078475
     31 H12        -0.8170   -4.1990   -0.6730 hc        1 MOL      0.078475
     32 H13        -1.5950   -7.0420   -1.7320 hc        1 MOL      0.063002
     33 H14        -0.0030   -7.8270   -1.4930 hc        1 MOL      0.063002
     34 H15        -0.7740   -6.9180   -0.2300 hc        1 MOL      0.063002
     35 H16        -2.6150   -4.7260   -2.4890 hc        1 MOL      0.070260
     36 H17        -2.2810   -3.0390   -2.4050 hc        1 MOL      0.070260
     37 H18        -1.4180   -3.9940   -3.6090 hc        1 MOL      0.070260
     38 N3          3.3570   -4.0380   -2.2610 n         1 MOL     -0.382423
     39 C13         4.2540   -3.4020   -3.2840 c3        1 MOL      0.140075
     40 C14         5.6120   -2.9230   -2.6880 c         1 MOL      0.312784
     41 O6          6.5870   -2.9340   -3.4650 o         1 MOL     -0.538136
     42 C15         3.4990   -2.2790   -4.0240 c3        1 MOL     -0.266345
     43 C16         2.9170   -1.3130   -3.0290 c         1 MOL      0.817129
     44 O7          3.2910   -1.2430   -1.8460 o         1 MOL     -0.741252
     45 O8          2.1570   -0.4410   -3.4220 o         1 MOL     -0.741252
     46 H19         3.3440   -3.6050   -1.3510 hn        1 MOL      0.296928
     47 H20         4.5050   -4.1460   -4.0330 h1        1 MOL      0.064468
     48 H21         2.6720   -2.7110   -4.5790 hc        1 MOL      0.081906
     49 H22         4.0810   -1.6840   -4.7350 hc        1 MOL      0.081906
     50 N4          5.7350   -2.5670   -1.3800 n         1 MOL     -0.098774
     51 C17         7.0770   -2.1640   -0.8550 c3        1 MOL     -0.022677
     52 C18         7.4160   -0.7450   -1.2830 c         1 MOL      0.406479
     53 O9          8.6080   -0.4530   -1.4290 o         1 MOL     -0.601495
     54 H23         4.8620   -2.5670   -0.8670 hn        1 MOL     -0.018425
     55 H24         7.8710   -2.8810   -1.0720 h1        1 MOL      0.075615
     56 H25         7.0600   -2.2070    0.2400 h1        1 MOL      0.075615
     57 N5          6.4920    0.2090   -1.5420 n         1 MOL     -0.089100
     58 C19         6.6960    1.5340   -2.0470 c3        1 MOL     -0.013874
     59 C20         7.0930    2.5790   -0.9940 c         1 MOL      0.383220
     60 O10         7.4460    3.6880   -1.4250 o         1 MOL     -0.534016
     61 C21         5.4250    1.9090   -2.7860 c3        1 MOL     -0.430857
     62 C22         4.1030    2.1370   -2.0520 c         1 MOL      0.840679
     63 O11         3.9960    1.5970   -0.8920 o         1 MOL     -0.699976
     64 O12         3.1500    2.8090   -2.5960 o         1 MOL     -0.699976
     65 H26         5.5150    0.0930   -1.3080 hn        1 MOL      0.167456
     66 H27         7.5260    1.4610   -2.7530 h1        1 MOL      0.117680
     67 H28         5.1360    1.1940   -3.5510 hc        1 MOL      0.113094
     68 H29         5.7490    2.8450   -3.2420 hc        1 MOL      0.113094
     69 N6          7.0260    2.3660    0.3080 n         1 MOL     -0.176097
     70 C23         7.2490    3.3980    1.3790 c3        1 MOL     -0.301158
     71 C24         5.9810    4.0940    1.8720 c         1 MOL      0.589576
     72 O13         5.9720    4.7040    2.9000 o         1 MOL     -0.603013
     73 H30         6.8010    1.4390    0.6440 hn        1 MOL      0.191028
     74 H31         7.9730    4.1700    1.1230 h1        1 MOL      0.131874
     75 H32         7.6050    2.8220    2.2290 h1        1 MOL      0.131874
     76 N7          4.8990    3.8740    1.1690 n         1 MOL     -0.261322
     77 C25         3.5320    4.3480    1.4870 c3        1 MOL      0.015574
     78 C26         2.5600    3.2410    1.7310 c         1 MOL      0.539178
     79 O14         2.7420    2.0420    1.5900 o         1 MOL     -0.560358
     80 C27         3.0770    5.2910    0.3420 c3        1 MOL     -0.002899
     81 C28         3.9360    6.5500    0.0620 c3        1 MOL     -0.104069
     82 C29         3.1860    7.6820   -0.6710 c         1 MOL      0.579343
     83 N8          2.8180    7.4490   -1.9330 n         1 MOL     -0.762152
     84 O15         2.9360    8.7520   -0.1060 o         1 MOL     -0.579031
     85 H33         5.0480    3.2390    0.3900 hn        1 MOL      0.202577
     86 H34         3.5350    4.9200    2.4120 h1        1 MOL      0.071899
     87 H35         2.0760    5.6260    0.6120 hc        1 MOL      0.031096
     88 H36         2.9420    4.7580   -0.6020 hc        1 MOL      0.031096
     89 H37         4.8130    6.3090   -0.5350 hc        1 MOL      0.040800
     90 H38         4.3840    7.0150    0.9370 hc        1 MOL      0.040800
     91 H39         3.1330    6.6050   -2.4030 hn        1 MOL      0.363867
     92 H40         2.2760    8.2090   -2.3250 hn        1 MOL      0.363867
     93 N9          1.3930    3.5520    2.2590 n         1 MOL     -0.533980
     94 C30         0.2550    2.6520    2.3760 c3        1 MOL      0.271197
     95 C31        -0.8880    3.1520    1.3600 c         1 MOL      0.517480
     96 O16        -1.1130    4.3230    1.3130 o         1 MOL     -0.582319
     97 C32        -0.2640    2.5670    3.8490 c3        1 MOL      0.309462
     98 C33        -0.7500    3.8750    4.4720 c3        1 MOL     -0.329913
     99 C34        -1.3420    1.4730    4.0870 c3        1 MOL     -0.329913
    100 H41         1.2620    4.5390    2.4070 hn        1 MOL      0.261461
    101 H42         0.4870    1.6400    2.0340 h1        1 MOL     -0.083985
    102 H43         0.6110    2.2170    4.3950 hc        1 MOL     -0.036747
    103 H44        -0.5790    3.8720    5.5420 hc        1 MOL      0.057663
    104 H45        -0.0420    4.6370    4.1650 hc        1 MOL      0.057663
    105 H46        -1.7890    4.0610    4.1930 hc        1 MOL      0.057663
    106 H47        -0.8550    0.5590    3.7690 hc        1 MOL      0.057663
    107 H48        -1.3820    1.2970    5.1640 hc        1 MOL      0.057663
    108 H49        -2.2980    1.6350    3.5900 hc        1 MOL      0.057663
    109 N10        -1.5300    2.2080    0.6500 n         1 MOL     -0.441428
    110 C35        -2.6960    2.4790   -0.2740 c3        1 MOL      0.254066
    111 C36        -3.9370    2.1190    0.5120 c         1 MOL      0.194389
    112 O17        -3.9220    1.3980    1.5060 o         1 MOL     -0.266948
    113 C37        -2.5200    1.6470   -1.4920 c3        1 MOL     -0.483642
    114 C38        -3.7420    1.5260   -2.3220 c         1 MOL      0.776929
    115 N11        -4.3290    2.6230   -2.8100 n         1 MOL     -0.795009
    116 O18        -4.3050    0.4610   -2.5190 o         1 MOL     -0.535232
    117 H50        -1.2440    1.2450    0.7020 hn        1 MOL      0.365980
    118 H51        -2.7630    3.5260   -0.5370 h1        1 MOL      0.041928
    119 H52        -2.1980    0.6650   -1.1500 hc        1 MOL      0.164894
    120 H53        -1.7590    2.1020   -2.1200 hc        1 MOL      0.164894
    121 H54        -3.9700    3.5560   -2.6620 hn        1 MOL      0.343259
    122 H55        -5.2800    2.5860   -3.1480 hn        1 MOL      0.343259
    123 N12        -5.0650    2.7330    0.1090 n         1 MOL     -0.217907
    124 C39        -6.3200    2.6300    0.9390 c3        1 MOL     -0.005821
    125 C40        -6.9000    1.1980    1.1210 c         1 MOL      0.346200
    126 O19        -7.6300    0.8370    2.0390 o         1 MOL     -0.532614
    127 C41        -7.4080    3.5140    0.2490 c3        1 MOL     -0.071929
    128 C42        -7.4500    3.4490   -1.2630 ca        1 MOL      0.094346
    129 C43        -7.9120    2.3150   -1.9050 ca        1 MOL     -0.215129
    130 C44        -7.0840    4.6190   -2.0250 ca        1 MOL     -0.215129
    131 C45        -7.9820    2.3110   -3.2930 ca        1 MOL     -0.260245
    132 C46        -7.1450    4.5810   -3.4420 ca        1 MOL     -0.260245
    133 C47        -7.6270    3.4210   -4.0990 ca        1 MOL      0.371935
    134 O20        -7.7840    3.3490   -5.4820 oh        1 MOL     -0.556993
    135 H56        -5.1830    3.3200   -0.7080 hn        1 MOL      0.133422
    136 H57        -6.0760    2.9610    1.9480 h1        1 MOL      0.081672
    137 H58        -7.2900    4.5570    0.5330 hc        1 MOL      0.048547
    138 H59        -8.3830    3.3360    0.6880 hc        1 MOL      0.048547
    139 H60        -8.4280    1.5910   -1.2910 ha        1 MOL      0.152715
    140 H61        -6.7350    5.5310   -1.5600 ha        1 MOL      0.152715
    141 H62        -8.3870    1.4300   -3.7650 ha        1 MOL      0.154855
    142 H63        -6.8940    5.4690   -4.0070 ha        1 MOL      0.154855
    143 H64        -8.2600    2.5480   -5.7020 ho        1 MOL      0.416659
    144 N13        -6.5050    0.2760    0.1960 n         1 MOL     -0.038451
    145 C48        -6.7360   -1.1890    0.2460 c3        1 MOL     -0.168335
    146 C49        -5.8370   -2.0040    1.2220 c         1 MOL      0.391674
    147 O21        -6.2300   -3.0280    1.8210 o         1 MOL     -0.508079
    148 C50        -6.8930   -1.6820   -1.2180 c3        1 MOL     -0.099628
    149 C51        -7.2330   -3.1680   -1.3330 c3        1 MOL     -0.064015
    150 C52        -7.5900   -3.6160   -2.7290 c         1 MOL      0.626960
    151 O22        -6.7500   -3.3810   -3.6420 o         1 MOL     -0.727772
    152 O23        -8.7320   -4.1080   -2.9210 o         1 MOL     -0.727772
    153 H65        -5.9550    0.5810   -0.5940 hn        1 MOL      0.144028
    154 H66        -7.6880   -1.3640    0.7400 h1        1 MOL      0.114379
    155 H67        -5.9880   -1.5160   -1.7890 hc        1 MOL      0.077546
    156 H68        -7.7800   -1.2110   -1.6390 hc        1 MOL      0.077546
    157 H69        -8.0410   -3.5760   -0.7270 hc        1 MOL     -0.000261
    158 H70        -6.2920   -3.6620   -1.0690 hc        1 MOL     -0.000261
    159 N14        -4.6170   -1.5070    1.4210 n         1 MOL     -0.148000
    160 C53        -3.7540   -1.9430    2.5230 c3        1 MOL     -0.053747
    161 C54        -4.2030   -1.3770    3.8290 c         1 MOL      0.411566
    162 O24        -4.2250   -2.0640    4.8490 o         1 MOL     -0.560975
    163 C55        -2.3440   -1.4340    2.2670 c3        1 MOL      0.130305
    164 C56        -1.6570   -2.1340    1.0260 c3        1 MOL     -0.148545
    165 C57        -0.2720   -1.5380    0.6930 c         1 MOL      0.530879
    166 O25         0.0680   -0.4490    1.2100 o         1 MOL     -0.636462
    167 O26         0.4500   -1.9280   -0.2400 o         1 MOL     -0.636462
    168 H71        -4.3700   -0.6590    0.9350 hn        1 MOL      0.157152
    169 H72        -3.7230   -3.0090    2.7240 h1        1 MOL      0.108726
    170 H73        -1.7400   -1.7390    3.1200 hc        1 MOL     -0.023364
    171 H74        -2.3560   -0.3400    2.2080 hc        1 MOL     -0.023364
    172 H75        -2.3140   -2.0180    0.1610 hc        1 MOL      0.041913
    173 H76        -1.6080   -3.2150    1.1270 hc        1 MOL      0.041913
    174 N15        -4.7530   -0.1770    3.9500 n         1 MOL     -0.058018
    175 C58        -5.3190    0.3440    5.2160 c3        1 MOL     -0.248964
    176 H77        -6.3620    0.6210    5.0610 h1        1 MOL      0.085594
    177 H78        -5.2580   -0.4250    5.9850 h1        1 MOL      0.085594
    178 H79        -4.7550    1.2210    5.5340 h1        1 MOL      0.085594
    179 H80        -4.8400    0.4800    3.1850 hn        1 MOL      0.136361
    180 Ca1         2.5520   -0.2470    0.3190 Ca        1 MOL      1.708363
    181 O27         5.1100   -0.2290    1.2710 oh        1 MOL     -0.896283
    182 H81         5.5030    0.1530    2.0520 ho        1 MOL      0.426805
    183 H82         5.3100   -1.1710    1.3270 ho        1 MOL      0.426805
    184 O28         2.1160   -0.7210    2.8210 oh        1 MOL     -0.896283
    185 H83         2.2550   -1.1580    3.6610 ho        1 MOL      0.426805
    186 H84         1.1610   -0.6050    2.7800 ho        1 MOL      0.426805
    187 O29         1.2110    1.4400   -1.3890 oh        1 MOL     -0.896283
    188 H85         1.2230    0.9110   -2.1900 ho        1 MOL      0.426805
    189 H86         2.0070    1.9750   -1.4540 ho        1 MOL      0.426805
@<TRIPOS>BOND
     1    1    2 1   
     2    1    4 1   
     3    1    5 1   
     4    1    6 1   
     5    2    3 2   
     6    2    7 1   
     7    7    8 1   
     8    7   15 1   
     9    8    9 1   
    10    8   11 1   
    11    8   16 1   
    12    9   10 2   
    13    9   19 1   
    14   11   12 1   
    15   11   17 1   
    16   11   18 1   
    17   12   13 1   
    18   12   14 1   
    19   19   20 1   
    20   19   27 1   
    21   20   21 1   
    22   20   23 1   
    23   20   28 1   
    24   21   22 2   
    25   21   38 1   
    26   23   24 1   
    27   23   25 1   
    28   23   29 1   
    29   24   26 1   
    30   24   30 1   
    31   24   31 1   
    32   25   32 1   
    33   25   33 1   
    34   25   34 1   
    35   26   35 1   
    36   26   36 1   
    37   26   37 1   
    38   38   39 1   
    39   38   46 1   
    40   39   40 1   
    41   39   42 1   
    42   39   47 1   
    43   40   41 2   
    44   40   50 1   
    45   42   43 1   
    46   42   48 1   
    47   42   49 1   
    48   43   44 1   
    49   43   45 1   
    50   50   51 1   
    51   50   54 1   
    52   51   52 1   
    53   51   55 1   
    54   51   56 1   
    55   52   53 2   
    56   52   57 1   
    57   57   58 1   
    58   57   65 1   
    59   58   59 1   
    60   58   61 1   
    61   58   66 1   
    62   59   60 2   
    63   59   69 1   
    64   61   62 1   
    65   61   67 1   
    66   61   68 1   
    67   62   63 1   
    68   62   64 1   
    69   69   70 1   
    70   69   73 1   
    71   70   71 1   
    72   70   74 1   
    73   70   75 1   
    74   71   72 2   
    75   71   76 1   
    76   76   77 1   
    77   76   85 1   
    78   77   78 1   
    79   77   80 1   
    80   77   86 1   
    81   78   79 2   
    82   78   93 1   
    83   80   81 1   
    84   80   87 1   
    85   80   88 1   
    86   81   82 1   
    87   81   89 1   
    88   81   90 1   
    89   82   83 1   
    90   82   84 2   
    91   83   91 1   
    92   83   92 1   
    93   93   94 1   
    94   93  100 1   
    95   94   95 1   
    96   94   97 1   
    97   94  101 1   
    98   95   96 2   
    99   95  109 1   
   100   97   98 1   
   101   97   99 1   
   102   97  102 1   
   103   98  103 1   
   104   98  104 1   
   105   98  105 1   
   106   99  106 1   
   107   99  107 1   
   108   99  108 1   
   109  109  110 1   
   110  109  117 1   
   111  110  111 1   
   112  110  113 1   
   113  110  118 1   
   114  111  112 2   
   115  111  123 1   
   116  113  114 1   
   117  113  119 1   
   118  113  120 1   
   119  114  115 1   
   120  114  116 2   
   121  115  121 1   
   122  115  122 1   
   123  123  124 1   
   124  123  135 1   
   125  124  125 1   
   126  124  127 1   
   127  124  136 1   
   128  125  126 2   
   129  125  144 1   
   130  127  128 1   
   131  127  137 1   
   132  127  138 1   
   133  128  129 ar  
   134  128  130 ar  
   135  129  131 ar  
   136  129  139 1   
   137  130  132 ar  
   138  130  140 1   
   139  131  133 ar  
   140  131  141 1   
   141  132  133 ar  
   142  132  142 1   
   143  133  134 1   
   144  134  143 1   
   145  144  145 1   
   146  144  153 1   
   147  145  146 1   
   148  145  148 1   
   149  145  154 1   
   150  146  147 2   
   151  146  159 1   
   152  148  149 1   
   153  148  155 1   
   154  148  156 1   
   155  149  150 1   
   156  149  157 1   
   157  149  158 1   
   158  150  151 1   
   159  150  152 1   
   160  159  160 1   
   161  159  168 1   
   162  160  161 1   
   163  160  163 1   
   164  160  169 1   
   165  161  162 2   
   166  161  174 1   
   167  163  164 1   
   168  163  170 1   
   169  163  171 1   
   170  164  165 1   
   171  164  172 1   
   172  164  173 1   
   173  165  166 1   
   174  165  167 1   
   175  174  175 1   
   176  174  179 1   
   177  175  176 1   
   178  175  177 1   
   179  175  178 1   
   180  181  182 1   
   181  181  183 1   
   182  184  185 1   
   183  184  186 1   
   184  187  188 1   
   185  187  189 1   
@<TRIPOS>SUBSTRUCTURE
     1 MOL         1 TEMP              0 ****  ****    0 ROOT
