@<TRIPOS>MOLECULE
MOL
  189   185     1     0     0
SMALL
resp


@<TRIPOS>ATOM
      1 C1         -0.1070    2.5600   -5.5030 c3        1 MOL     -0.386922
      2 C2          0.4340    2.3090   -4.1370 c         1 MOL      0.704660
      3 O1         -0.2160    2.6730   -3.1400 o         1 MOL     -0.646458
      4 H1         -0.0340    3.6230   -5.7330 hc        1 MOL      0.105020
      5 H2          0.4690    1.9910   -6.2330 hc        1 MOL      0.105020
      6 H3         -1.1510    2.2520   -5.5430 hc        1 MOL      0.105020
      7 N1          1.5550    1.5860   -3.9350 n         1 MOL     -0.612081
      8 C3          2.1130    1.3490   -2.5920 c3        1 MOL      0.089641
      9 C4          2.8030    2.5560   -1.9720 c         1 MOL      0.492100
     10 O2          3.9400    2.8400   -2.2360 o         1 MOL     -0.497168
     11 C5          3.0320    0.1030   -2.6630 c3        1 MOL     -0.082029
     12 C6          3.8610   -0.1330   -1.3590 c         1 MOL      0.537260
     13 O3          3.4180    0.1110   -0.2610 o         1 MOL     -0.606616
     14 O4          5.0570   -0.4290   -1.5190 o         1 MOL     -0.606616
     15 H4          2.2010    1.4510   -4.7060 hn        1 MOL      0.329249
     16 H5          1.2540    1.1270   -1.9540 h1        1 MOL      0.073655
     17 H6          3.7380    0.1890   -3.4910 hc        1 MOL      0.027363
     18 H7          2.4640   -0.8170   -2.8080 hc        1 MOL      0.027363
     19 N2          1.9570    3.2420   -1.1660 n         1 MOL     -0.418580
     20 C7          2.2070    4.6180   -0.7410 c3        1 MOL     -0.009232
     21 C8          2.8880    4.7480    0.5730 c         1 MOL      0.519131
     22 O5          3.3880    5.8470    0.8360 o         1 MOL     -0.573252
     23 C9          0.7620    5.2420   -0.7790 c3        1 MOL     -0.099678
     24 C10         0.7240    6.7390   -0.6240 c3        1 MOL      0.204245
     25 C11         1.6290    7.5710   -1.4710 c3        1 MOL     -0.048284
     26 C12         1.5300    7.3840   -2.9720 c3        1 MOL      0.053434
     27 N3          0.4950    8.3480   -3.5460 n4        1 MOL     -0.482856
     28 H8          1.0260    2.8700   -1.1520 hn        1 MOL      0.432217
     29 H9          2.8050    5.0630   -1.5380 h1        1 MOL      0.089382
     30 H10         0.1730    4.8220    0.0300 hc        1 MOL      0.007334
     31 H11         0.3330    4.9060   -1.7210 hc        1 MOL      0.007334
     32 H12         0.8070    7.1380    0.3800 hc        1 MOL     -0.040066
     33 H13        -0.2500    7.1410   -0.9260 hc        1 MOL     -0.040066
     34 H14         2.6650    7.3310   -1.2070 hc        1 MOL      0.029749
     35 H15         1.5010    8.6390   -1.2800 hc        1 MOL      0.029749
     36 H16         1.3310    6.3420   -3.2240 hx        1 MOL      0.092587
     37 H17         2.5040    7.5380   -3.4480 hx        1 MOL      0.092587
     38 H18        -0.3880    7.9250   -3.7840 hn        1 MOL      0.349936
     39 H19         0.3490    9.1530   -2.9680 hn        1 MOL      0.349936
     40 H20         0.8090    8.6910   -4.4440 hn        1 MOL      0.349936
     41 N4          2.9430    3.6810    1.3000 n         1 MOL     -0.286185
     42 C13         3.9720    3.6350    2.3400 c3        1 MOL      0.141703
     43 C14         5.2710    3.0540    1.8160 c         1 MOL      0.390645
     44 O6          6.3690    3.4070    2.3200 o         1 MOL     -0.553562
     45 C15         3.4450    3.1260    3.6830 c3        1 MOL     -0.292694
     46 C16         2.7670    1.7410    3.7120 c         1 MOL      0.821394
     47 O7          2.8680    1.0110    2.7370 o         1 MOL     -0.732305
     48 O8          2.0970    1.3990    4.7210 o         1 MOL     -0.732305
     49 H21         2.5420    2.8570    0.8730 hn        1 MOL      0.137782
     50 H22         4.2500    4.6730    2.5280 h1        1 MOL      0.063672
     51 H23         2.6810    3.7970    4.0700 hc        1 MOL      0.066015
     52 H24         4.2720    3.1170    4.3960 hc        1 MOL      0.066015
     53 N5          5.2500    2.2010    0.7900 n         1 MOL      0.011481
     54 C17         6.4630    1.7130    0.0800 c3        1 MOL     -0.339684
     55 C18         7.1150    0.5240    0.6750 c         1 MOL      0.634002
     56 O9          8.3550    0.4060    0.4910 o         1 MOL     -0.577004
     57 H25         4.3610    2.0280    0.3440 hn        1 MOL      0.012970
     58 H26         7.1570    2.5520    0.2030 h1        1 MOL      0.146408
     59 H27         6.1590    1.4690   -0.9360 h1        1 MOL      0.146408
     60 N6          6.2980   -0.3280    1.3660 n         1 MOL     -0.395378
     61 C19         6.7410   -1.6380    1.9690 c3        1 MOL      0.097964
     62 C20         7.0240   -2.7610    0.9140 c         1 MOL      0.313344
     63 O10         7.7890   -3.7300    1.1600 o         1 MOL     -0.544964
     64 C21         5.7600   -2.1180    3.0240 c3        1 MOL     -0.307093
     65 C22         4.3160   -2.0730    2.6000 c         1 MOL      0.814348
     66 O11         3.4040   -1.9260    3.4300 o         1 MOL     -0.737692
     67 O12         3.9870   -2.2550    1.4220 o         1 MOL     -0.737692
     68 H28         5.3210   -0.0790    1.3490 hn        1 MOL      0.233833
     69 H29         7.6560   -1.3870    2.5060 h1        1 MOL      0.084731
     70 H30         5.8440   -1.5100    3.9160 hc        1 MOL      0.086652
     71 H31         6.0190   -3.1520    3.2330 hc        1 MOL      0.086652
     72 N7          6.4940   -2.5760   -0.2890 n         1 MOL     -0.014479
     73 C23         6.4860   -3.5540   -1.3530 c3        1 MOL     -0.246750
     74 C24         5.1700   -4.3030   -1.4960 c         1 MOL      0.497473
     75 O13         5.1030   -5.2950   -2.3020 o         1 MOL     -0.593190
     76 H32         6.0300   -1.6800   -0.3400 hn        1 MOL      0.138803
     77 H33         7.2300   -4.3410   -1.2320 h1        1 MOL      0.121286
     78 H34         6.5760   -2.9750   -2.2770 h1        1 MOL      0.121286
     79 N8          4.1080   -3.9080   -0.8010 n         1 MOL     -0.138641
     80 C25         2.7270   -4.5270   -0.9130 c3        1 MOL     -0.008422
     81 C26         1.5840   -3.4920   -0.9460 c         1 MOL      0.488840
     82 O14         1.8180   -2.3100   -0.6510 o         1 MOL     -0.585734
     83 C27         2.4240   -5.6460    0.0370 c3        1 MOL      0.250164
     84 C28         3.3280   -6.9160   -0.0250 c3        1 MOL     -0.382165
     85 O15         2.5730   -5.1800    1.3330 oh        1 MOL     -0.595591
     86 H35         4.2270   -3.2600   -0.0340 hn        1 MOL      0.193246
     87 H36         2.6930   -4.9430   -1.9170 h1        1 MOL      0.036402
     88 H37         1.3900   -5.9840   -0.0500 h1        1 MOL      0.078634
     89 H38         3.4870   -5.0700    1.5860 ho        1 MOL      0.410601
     90 H39         2.8090   -7.7310    0.4660 hc        1 MOL      0.105637
     91 H40         3.5500   -7.2280   -1.0490 hc        1 MOL      0.105637
     92 H41         4.2380   -6.7460    0.5500 hc        1 MOL      0.105637
     93 N9          0.3650   -3.9360   -1.2620 n         1 MOL     -0.475277
     94 C29        -0.7730   -3.0600   -1.5640 c3        1 MOL      0.033319
     95 C30        -2.0100   -3.6200   -0.8100 c         1 MOL      0.421481
     96 O16        -2.4720   -4.7030   -1.1330 o         1 MOL     -0.532724
     97 C31        -0.9220   -2.9200   -3.0960 c3        1 MOL      0.118569
     98 C32         0.2510   -2.2050   -3.7860 c3        1 MOL      0.205458
     99 C33        -2.2280   -2.1580   -3.4340 c3        1 MOL     -0.171223
    100 C34         0.4030   -2.2870   -5.2720 c3        1 MOL     -0.362937
    101 H42         0.3000   -4.9410   -1.4130 hn        1 MOL      0.273853
    102 H43        -0.6220   -2.0590   -1.1580 h1        1 MOL      0.058815
    103 H44        -0.9320   -3.8880   -3.5990 hc        1 MOL      0.003049
    104 H45         1.1240   -2.7330   -3.4070 hc        1 MOL      0.014297
    105 H46         0.1390   -1.1580   -3.5290 hc        1 MOL      0.014297
    106 H47        -2.3260   -1.2820   -2.7990 hc        1 MOL      0.019711
    107 H48        -2.2750   -1.8930   -4.4960 hc        1 MOL      0.019711
    108 H49        -3.1510   -2.7070   -3.2120 hc        1 MOL      0.019711
    109 H50        -0.4410   -1.7680   -5.7220 hc        1 MOL      0.078064
    110 H51         1.3910   -1.9220   -5.5490 hc        1 MOL      0.078064
    111 H52         0.3740   -3.3210   -5.6270 hc        1 MOL      0.078064
    112 N10        -2.6950   -2.7430   -0.1390 n         1 MOL     -0.184602
    113 C35        -3.9870   -2.9940    0.5080 c3        1 MOL      0.046106
    114 C36        -5.2540   -2.6190   -0.2980 c         1 MOL      0.332655
    115 O17        -5.1460   -1.7970   -1.2450 o         1 MOL     -0.306781
    116 C37        -3.9500   -2.1830    1.8290 c3        1 MOL      0.065711
    117 C38        -2.8010   -2.6040    2.8340 c3        1 MOL     -0.279419
    118 O18        -3.8330   -0.8230    1.5830 oh        1 MOL     -0.563247
    119 H53        -2.2970   -1.8180    0.0300 hn        1 MOL      0.175672
    120 H54        -4.0770   -4.0680    0.7050 h1        1 MOL      0.062221
    121 H55        -4.9090   -2.3850    2.3100 h1        1 MOL      0.080915
    122 H56        -2.8930   -0.6330    1.6010 ho        1 MOL      0.449825
    123 H57        -2.4630   -1.8100    3.4840 hc        1 MOL      0.094450
    124 H58        -3.0550   -3.5170    3.3730 hc        1 MOL      0.094450
    125 H59        -1.8190   -2.7590    2.3790 hc        1 MOL      0.094450
    126 N11        -6.3800   -3.0870    0.2040 n         1 MOL     -0.274248
    127 C39        -7.6840   -2.5140   -0.1510 c3        1 MOL     -0.320941
    128 C40        -7.6970   -0.9930    0.0720 c         1 MOL      0.486290
    129 O19        -8.4780   -0.3940   -0.6210 o         1 MOL     -0.511908
    130 C41        -8.7750   -3.2550    0.5680 c3        1 MOL      0.446662
    131 C42        -8.8220   -4.6930    0.1950 c3        1 MOL     -0.499374
    132 O20        -8.6990   -3.2090    1.9690 oh        1 MOL     -0.670772
    133 H60        -6.3210   -3.8110    0.8980 hn        1 MOL      0.286376
    134 H61        -7.8490   -2.7120   -1.2100 h1        1 MOL      0.178847
    135 H62        -9.7290   -2.7760    0.3660 h1        1 MOL      0.038037
    136 H63        -9.4090   -3.7360    2.3360 ho        1 MOL      0.421309
    137 H64        -8.7620   -4.8270   -0.8790 hc        1 MOL      0.131116
    138 H65        -8.1940   -5.3310    0.8230 hc        1 MOL      0.131116
    139 H66        -9.8580   -4.9530    0.3920 hc        1 MOL      0.131116
    140 N12        -6.9220   -0.4560    0.9680 n         1 MOL     -0.278982
    141 C43        -6.8320    0.9880    1.1620 c3        1 MOL      0.136617
    142 C44        -6.1010    1.7510    0.1190 c         1 MOL      0.187639
    143 O21        -6.5310    2.8110   -0.2970 o         1 MOL     -0.517905
    144 C45        -6.2100    1.2360    2.5920 c3        1 MOL     -0.258291
    145 C46        -6.4730    2.7490    2.9410 c3        1 MOL      0.052217
    146 C47        -5.9910    2.9320    4.4370 c3        1 MOL     -0.130995
    147 C48        -6.0120    4.4160    4.7280 c3        1 MOL      0.077552
    148 N13        -5.4360    4.7920    6.0970 n4        1 MOL     -0.379084
    149 H67        -6.2440   -1.0680    1.3860 hn        1 MOL      0.232361
    150 H68        -7.8590    1.3560    1.1200 h1        1 MOL      0.099098
    151 H69        -5.1300    1.1040    2.5320 hc        1 MOL      0.092399
    152 H70        -6.8230    0.6740    3.2880 hc        1 MOL      0.092399
    153 H71        -7.5540    2.8350    2.8420 hc        1 MOL      0.038860
    154 H72        -5.9190    3.3900    2.2600 hc        1 MOL      0.038860
    155 H73        -4.9430    2.6580    4.4050 hc        1 MOL      0.069227
    156 H74        -6.6150    2.4450    5.1890 hc        1 MOL      0.069227
    157 H75        -7.0680    4.6430    4.6080 hx        1 MOL      0.067288
    158 H76        -5.4390    4.8400    3.9040 hx        1 MOL      0.067288
    159 H77        -4.4970    4.4200    6.1400 hn        1 MOL      0.329729
    160 H78        -5.4550    5.7980    6.1850 hn        1 MOL      0.329729
    161 H79        -5.9580    4.3890    6.8750 hn        1 MOL      0.329729
    162 N14        -5.1390    1.0590   -0.4330 n         1 MOL      0.302427
    163 C49        -4.1410    1.6280   -1.3620 c3        1 MOL     -0.040087
    164 C50        -4.6720    1.6050   -2.7800 c         1 MOL      0.347611
    165 O22        -4.6070    2.5630   -3.4840 o         1 MOL     -0.520930
    166 C51        -2.7650    0.8980   -1.2410 c3        1 MOL      0.109087
    167 C52        -1.9360    1.5670   -0.0950 c3        1 MOL     -0.367674
    168 C53        -0.8310    0.6030    0.3790 c         1 MOL      0.798355
    169 O23        -1.0670   -0.4080    1.0410 o         1 MOL     -0.794389
    170 O24         0.3740    0.8580    0.1590 o         1 MOL     -0.794389
    171 H80        -4.9220    0.2190    0.0850 hn        1 MOL     -0.215314
    172 H81        -4.0240    2.6950   -1.1530 h1        1 MOL      0.057543
    173 H82        -2.2610    0.9230   -2.2100 hc        1 MOL      0.054362
    174 H83        -2.9320   -0.1750   -1.1280 hc        1 MOL      0.054362
    175 H84        -2.5300    1.7190    0.8080 hc        1 MOL      0.106784
    176 H85        -1.4010    2.4120   -0.5400 hc        1 MOL      0.106784
    177 N15        -5.4630    0.5640   -3.0940 n         1 MOL     -0.068641
    178 C54        -6.3450    0.5150   -4.2630 c3        1 MOL     -0.146484
    179 H86        -6.4920    1.5240   -4.6490 h1        1 MOL      0.072653
    180 H87        -5.8910   -0.1060   -5.0360 h1        1 MOL      0.072653
    181 H88        -7.3070    0.0930   -3.9750 h1        1 MOL      0.072653
    182 H89        -5.3490   -0.2720   -2.5470 hn        1 MOL      0.079419
    183 Ca1         1.7270   -0.8750    1.4930 Ca        1 MOL      1.818481
    184 O25         0.8870   -3.2140    2.2200 oh        1 MOL     -0.860516
    185 H90         0.3920   -3.7040    2.8850 ho        1 MOL      0.394583
    186 H91         1.5760   -3.8140    1.9410 ho        1 MOL      0.394583
    187 O26         0.4650   -0.3880    3.8230 oh        1 MOL     -0.860516
    188 H92        -0.3340   -0.1270    4.2860 ho        1 MOL      0.394583
    189 H93         1.1710    0.0680    4.2870 ho        1 MOL      0.394583
@<TRIPOS>BOND
     1    1    2 1   
     2    1    4 1   
     3    1    5 1   
     4    1    6 1   
     5    2    3 2   
     6    2    7 1   
     7    7    8 1   
     8    7   15 1   
     9    8    9 1   
    10    8   11 1   
    11    8   16 1   
    12    9   10 2   
    13    9   19 1   
    14   11   12 1   
    15   11   17 1   
    16   11   18 1   
    17   12   13 1   
    18   12   14 1   
    19   19   20 1   
    20   19   28 1   
    21   20   21 1   
    22   20   23 1   
    23   20   29 1   
    24   21   22 2   
    25   21   41 1   
    26   23   24 1   
    27   23   30 1   
    28   23   31 1   
    29   24   25 1   
    30   24   32 1   
    31   24   33 1   
    32   25   26 1   
    33   25   34 1   
    34   25   35 1   
    35   26   27 1   
    36   26   36 1   
    37   26   37 1   
    38   27   38 1   
    39   27   39 1   
    40   27   40 1   
    41   41   42 1   
    42   41   49 1   
    43   42   43 1   
    44   42   45 1   
    45   42   50 1   
    46   43   44 2   
    47   43   53 1   
    48   45   46 1   
    49   45   51 1   
    50   45   52 1   
    51   46   47 1   
    52   46   48 1   
    53   53   54 1   
    54   53   57 1   
    55   54   55 1   
    56   54   58 1   
    57   54   59 1   
    58   55   56 2   
    59   55   60 1   
    60   60   61 1   
    61   60   68 1   
    62   61   62 1   
    63   61   64 1   
    64   61   69 1   
    65   62   63 2   
    66   62   72 1   
    67   64   65 1   
    68   64   70 1   
    69   64   71 1   
    70   65   66 1   
    71   65   67 1   
    72   72   73 1   
    73   72   76 1   
    74   73   74 1   
    75   73   77 1   
    76   73   78 1   
    77   74   75 2   
    78   74   79 1   
    79   79   80 1   
    80   79   86 1   
    81   80   81 1   
    82   80   83 1   
    83   80   87 1   
    84   81   82 2   
    85   81   93 1   
    86   83   84 1   
    87   83   85 1   
    88   83   88 1   
    89   84   90 1   
    90   84   91 1   
    91   84   92 1   
    92   85   89 1   
    93   93   94 1   
    94   93  101 1   
    95   94   95 1   
    96   94   97 1   
    97   94  102 1   
    98   95   96 2   
    99   95  112 1   
   100   97   98 1   
   101   97   99 1   
   102   97  103 1   
   103   98  100 1   
   104   98  104 1   
   105   98  105 1   
   106   99  106 1   
   107   99  107 1   
   108   99  108 1   
   109  100  109 1   
   110  100  110 1   
   111  100  111 1   
   112  112  113 1   
   113  112  119 1   
   114  113  114 1   
   115  113  116 1   
   116  113  120 1   
   117  114  115 2   
   118  114  126 1   
   119  116  117 1   
   120  116  118 1   
   121  116  121 1   
   122  117  123 1   
   123  117  124 1   
   124  117  125 1   
   125  118  122 1   
   126  126  127 1   
   127  126  133 1   
   128  127  128 1   
   129  127  130 1   
   130  127  134 1   
   131  128  129 2   
   132  128  140 1   
   133  130  131 1   
   134  130  132 1   
   135  130  135 1   
   136  131  137 1   
   137  131  138 1   
   138  131  139 1   
   139  132  136 1   
   140  140  141 1   
   141  140  149 1   
   142  141  142 1   
   143  141  144 1   
   144  141  150 1   
   145  142  143 2   
   146  142  162 1   
   147  144  145 1   
   148  144  151 1   
   149  144  152 1   
   150  145  146 1   
   151  145  153 1   
   152  145  154 1   
   153  146  147 1   
   154  146  155 1   
   155  146  156 1   
   156  147  148 1   
   157  147  157 1   
   158  147  158 1   
   159  148  159 1   
   160  148  160 1   
   161  148  161 1   
   162  162  163 1   
   163  162  171 1   
   164  163  164 1   
   165  163  166 1   
   166  163  172 1   
   167  164  165 2   
   168  164  177 1   
   169  166  167 1   
   170  166  173 1   
   171  166  174 1   
   172  167  168 1   
   173  167  175 1   
   174  167  176 1   
   175  168  169 1   
   176  168  170 1   
   177  177  178 1   
   178  177  182 1   
   179  178  179 1   
   180  178  180 1   
   181  178  181 1   
   182  184  185 1   
   183  184  186 1   
   184  187  188 1   
   185  187  189 1   
@<TRIPOS>SUBSTRUCTURE
     1 MOL         1 TEMP              0 ****  ****    0 ROOT
