@<TRIPOS>MOLECULE
MOL
  189   185     1     0     0
SMALL
resp


@<TRIPOS>ATOM
      1 C1          0.2010    2.2470   -5.8450 c3        1 MOL     -0.391138
      2 C2          0.7290    1.9870   -4.4040 c         1 MOL      0.759886
      3 O1          0.0210    2.4910   -3.5060 o         1 MOL     -0.626562
      4 H1          0.9890    2.7030   -6.4440 hc        1 MOL      0.100293
      5 H2         -0.0990    1.3030   -6.2980 hc        1 MOL      0.100293
      6 H3         -0.6570    2.9190   -5.8010 hc        1 MOL      0.100293
      7 N1          1.8060    1.3240   -4.1170 n         1 MOL     -0.616822
      8 C3          2.3010    1.1620   -2.6900 c3        1 MOL     -0.002302
      9 C4          3.1850    2.3120   -2.2760 c         1 MOL      0.673962
     10 O2          4.2650    2.5600   -2.8040 o         1 MOL     -0.579551
     11 C5          3.0900   -0.1390   -2.6620 c3        1 MOL     -0.388466
     12 C6          3.7640   -0.4860   -1.3470 c         1 MOL      0.783231
     13 O3          3.3500    0.0500   -0.2610 o         1 MOL     -0.649268
     14 O4          4.6770   -1.3020   -1.4360 o         1 MOL     -0.649268
     15 H4          2.3440    0.8270   -4.8070 hn        1 MOL      0.349062
     16 H5          1.4860    1.1210   -1.9740 h1        1 MOL      0.091442
     17 H6          3.9010    0.0210   -3.3830 hc        1 MOL      0.100315
     18 H7          2.5210   -1.0100   -2.9680 hc        1 MOL      0.100315
     19 N2          2.8270    3.0530   -1.2040 n         1 MOL     -0.437628
     20 C7          3.3540    4.3770   -0.8710 c3        1 MOL      0.188332
     21 C8          4.2750    4.4210    0.3680 c         1 MOL      0.372528
     22 O5          5.2060    5.2160    0.3450 o         1 MOL     -0.558755
     23 C9          2.1190    5.3490   -0.6710 c3        1 MOL     -0.188327
     24 C10         2.1720    6.7320    0.0100 c3        1 MOL     -0.018638
     25 C11         2.9900    7.6980   -0.8720 c3        1 MOL      0.086269
     26 C12         3.2510    9.0230   -0.2350 c3        1 MOL      0.052425
     27 N3          4.3200    9.7220   -1.0100 n4        1 MOL     -0.379762
     28 H8          2.1380    2.6250   -0.6020 hn        1 MOL      0.207404
     29 H9          3.9400    4.7620   -1.7010 h1        1 MOL      0.060682
     30 H10         1.4550    4.8360    0.0350 hc        1 MOL      0.084693
     31 H11         1.6590    5.4860   -1.6500 hc        1 MOL      0.084693
     32 H12         2.5040    6.7590    1.0420 hc        1 MOL      0.030526
     33 H13         1.1760    7.1680    0.0980 hc        1 MOL      0.030526
     34 H14         2.4090    7.8730   -1.7710 hc        1 MOL     -0.011426
     35 H15         3.9070    7.2630   -1.2820 hc        1 MOL     -0.011426
     36 H16         3.5360    8.8660    0.8110 hx        1 MOL      0.065530
     37 H17         2.3000    9.5590   -0.2120 hx        1 MOL      0.065530
     38 H18         4.2010    9.5610   -2.0030 hn        1 MOL      0.335014
     39 H19         4.3580   10.6950   -0.7570 hn        1 MOL      0.335014
     40 H20         5.1790    9.2390   -0.7970 hn        1 MOL      0.335014
     41 N4          4.1450    3.4720    1.3570 n         1 MOL     -0.349548
     42 C13         5.1710    3.1340    2.3730 c3        1 MOL      0.017577
     43 C14         6.1860    2.0460    1.9590 c         1 MOL      0.506802
     44 O6          7.1280    1.9240    2.6580 o         1 MOL     -0.554608
     45 C15         4.3240    2.6780    3.7100 c3        1 MOL     -0.311318
     46 C16         3.1250    1.7960    3.4630 c         1 MOL      0.770519
     47 O7          2.1750    1.8830    4.3430 o         1 MOL     -0.696976
     48 O8          2.9900    1.0750    2.4440 o         1 MOL     -0.696976
     49 H21         3.3360    2.8670    1.2610 hn        1 MOL      0.282784
     50 H22         5.8190    3.9650    2.6860 h1        1 MOL      0.098528
     51 H23         3.8840    3.5260    4.2370 hc        1 MOL      0.083711
     52 H24         5.0070    2.2880    4.4720 hc        1 MOL      0.083711
     53 N5          5.9950    1.4820    0.8090 n         1 MOL     -0.149194
     54 C17         7.0080    0.6850    0.0880 c3        1 MOL     -0.186830
     55 C18         7.3770   -0.6190    0.7420 c         1 MOL      0.474936
     56 O9          8.4740   -1.1740    0.6650 o         1 MOL     -0.572860
     57 H25         5.0710    1.6090    0.4240 hn        1 MOL      0.174293
     58 H26         7.7920    1.3890   -0.1660 h1        1 MOL      0.106176
     59 H27         6.6340    0.3120   -0.8670 h1        1 MOL      0.106176
     60 N6          6.3660   -1.1740    1.3680 n         1 MOL     -0.147137
     61 C19         6.4080   -2.4670    2.0200 c3        1 MOL     -0.046747
     62 C20         6.2390   -3.6380    1.0390 c         1 MOL      0.442952
     63 O10         6.4050   -4.7910    1.4570 o         1 MOL     -0.539188
     64 C21         5.2950   -2.5300    3.0490 c3        1 MOL     -0.287370
     65 C22         3.8840   -2.3050    2.5460 c         1 MOL      0.811621
     66 O11         3.5440   -2.6050    1.3780 o         1 MOL     -0.728857
     67 O12         3.0440   -1.8210    3.3170 o         1 MOL     -0.728857
     68 H28         5.5370   -0.6030    1.3110 hn        1 MOL      0.120500
     69 H29         7.3220   -2.6960    2.5530 h1        1 MOL      0.124827
     70 H30         5.4920   -1.7800    3.8220 hc        1 MOL      0.094459
     71 H31         5.2620   -3.5230    3.5000 hc        1 MOL      0.094459
     72 N7          5.9600   -3.4690   -0.2480 n         1 MOL     -0.268860
     73 C23         5.7830   -4.5770   -1.2080 c3        1 MOL      0.061656
     74 C24         4.4370   -5.3510   -1.1830 c         1 MOL      0.450276
     75 O13         4.3170   -6.5200   -1.6140 o         1 MOL     -0.557582
     76 H32         5.6910   -2.5280   -0.5000 hn        1 MOL      0.241252
     77 H33         6.6560   -5.2190   -1.3160 h1        1 MOL      0.032500
     78 H34         5.7790   -4.0620   -2.1680 h1        1 MOL      0.032500
     79 N8          3.4170   -4.6300   -0.6960 n         1 MOL     -0.135024
     80 C25         1.9310   -4.9640   -0.7290 c3        1 MOL     -0.368209
     81 C26         1.0510   -3.6960   -1.0820 c         1 MOL      0.773476
     82 O14         1.4290   -2.5830   -0.7150 o         1 MOL     -0.664900
     83 C27         1.5160   -5.4450    0.6030 c3        1 MOL      0.586965
     84 C28         1.8290   -6.9350    0.6810 c3        1 MOL     -0.525643
     85 O15         2.2570   -4.9320    1.6870 oh        1 MOL     -0.658898
     86 H35         3.5800   -3.6780   -0.4000 hn        1 MOL      0.172530
     87 H36         1.6850   -5.7260   -1.4710 h1        1 MOL      0.144358
     88 H37         0.4440   -5.3370    0.8240 h1        1 MOL     -0.055040
     89 H38         2.6660   -4.0900    1.4730 ho        1 MOL      0.453370
     90 H39         1.4830   -7.2760    1.6560 hc        1 MOL      0.126776
     91 H40         1.2600   -7.4530   -0.0890 hc        1 MOL      0.126776
     92 H41         2.9020   -7.0720    0.4910 hc        1 MOL      0.126776
     93 N9         -0.0960   -3.9270   -1.6440 n         1 MOL     -0.736180
     94 C29        -1.1860   -2.9420   -1.7960 c3        1 MOL      0.326203
     95 C30        -2.4580   -3.2980   -1.0110 c         1 MOL      0.331555
     96 O16        -2.9400   -4.4640   -1.0840 o         1 MOL     -0.523153
     97 C31        -1.3170   -2.6490   -3.3030 c3        1 MOL      0.233310
     98 C32         0.0060   -2.0380   -3.9120 c3        1 MOL     -0.131829
     99 C33        -2.4470   -1.5960   -3.5340 c3        1 MOL     -0.495965
    100 C34         0.2610   -2.4310   -5.3890 c3        1 MOL     -0.178011
    101 H42        -0.3160   -4.8670   -1.9360 hn        1 MOL      0.323360
    102 H43        -0.7790   -2.0360   -1.3520 h1        1 MOL     -0.014946
    103 H44        -1.5660   -3.5950   -3.7910 hc        1 MOL     -0.001610
    104 H45         0.8860   -2.3240   -3.3530 hc        1 MOL      0.095950
    105 H46         0.0650   -0.9560   -3.9640 hc        1 MOL      0.095950
    106 H47        -2.1460   -0.6380   -3.1240 hc        1 MOL      0.099692
    107 H48        -2.7050   -1.3460   -4.5540 hc        1 MOL      0.099692
    108 H49        -3.3330   -2.0840   -3.1130 hc        1 MOL      0.099692
    109 H50         0.2380   -3.5280   -5.4400 hc        1 MOL      0.038846
    110 H51        -0.4610   -2.0410   -6.1100 hc        1 MOL      0.038846
    111 H52         1.2150   -2.0340   -5.7540 hc        1 MOL      0.038846
    112 N10        -3.0620   -2.2500   -0.3950 n         1 MOL     -0.108882
    113 C35        -4.3480   -2.3510    0.3470 c3        1 MOL     -0.013501
    114 C36        -5.4910   -1.8340   -0.4870 c         1 MOL      0.435131
    115 O17        -5.2450   -1.1670   -1.5500 o         1 MOL     -0.401213
    116 C37        -4.3180   -1.6840    1.7360 c3        1 MOL     -0.029209
    117 C38        -3.1340   -2.2290    2.5610 c3        1 MOL     -0.491345
    118 O18        -4.1470   -0.3160    1.6150 oh        1 MOL     -0.236272
    119 H53        -2.6430   -1.3300   -0.4220 hn        1 MOL      0.132862
    120 H54        -4.5220   -3.4190    0.5230 h1        1 MOL      0.075146
    121 H55        -5.2180   -1.8090    2.3400 h1        1 MOL      0.067727
    122 H56        -3.9750    0.0760    2.4720 ho        1 MOL      0.331949
    123 H57        -2.1880   -1.7550    2.3260 hc        1 MOL      0.147238
    124 H58        -3.2710   -2.3110    3.6400 hc        1 MOL      0.147238
    125 H59        -3.0590   -3.3150    2.4570 hc        1 MOL      0.147238
    126 N11        -6.7270   -2.2320   -0.0710 n         1 MOL     -0.328544
    127 C39        -7.9040   -1.5790   -0.6030 c3        1 MOL     -0.134459
    128 C40        -7.8710   -0.0870   -0.5430 c         1 MOL      0.370765
    129 O19        -8.2800    0.6490   -1.4430 o         1 MOL     -0.472612
    130 C41        -9.1110   -1.9470    0.2450 c3        1 MOL      0.382632
    131 C42        -9.6410   -3.3570   -0.0620 c3        1 MOL     -0.511541
    132 O20        -8.9250   -1.8080    1.6380 oh        1 MOL     -0.623996
    133 H60        -6.7860   -2.9670    0.6210 hn        1 MOL      0.299335
    134 H61        -8.1420   -1.8800   -1.6230 h1        1 MOL      0.138629
    135 H62        -9.8760   -1.2060    0.0140 h1        1 MOL      0.036154
    136 H63        -9.7240   -1.3620    1.9460 ho        1 MOL      0.384735
    137 H64        -9.4910   -3.5940   -1.1090 hc        1 MOL      0.143395
    138 H65        -9.0380   -4.0670    0.5140 hc        1 MOL      0.143395
    139 H66       -10.7080   -3.3480    0.1730 hc        1 MOL      0.143395
    140 N12        -7.3450    0.4640    0.5390 n         1 MOL     -0.365232
    141 C43        -7.0400    1.9290    0.6670 c3        1 MOL      0.140715
    142 C44        -6.0640    2.4160   -0.4160 c         1 MOL      0.268271
    143 O21        -6.5120    3.1510   -1.3050 o         1 MOL     -0.475939
    144 C45        -6.5360    2.3080    2.0730 c3        1 MOL     -0.127523
    145 C46        -7.4370    1.8090    3.2090 c3        1 MOL      0.099520
    146 C47        -6.9950    2.3280    4.6040 c3        1 MOL     -0.053337
    147 C48        -8.0730    1.8530    5.5880 c3        1 MOL      0.065615
    148 N13        -7.8390    2.2190    6.9390 n4        1 MOL     -0.192900
    149 H67        -7.0130   -0.1920    1.2370 hn        1 MOL      0.190604
    150 H68        -7.9460    2.5310    0.5360 h1        1 MOL      0.093431
    151 H69        -6.4990    3.3890    2.1180 hc        1 MOL      0.032427
    152 H70        -5.5800    1.7920    2.2330 hc        1 MOL      0.032427
    153 H71        -7.4520    0.7230    3.3030 hc        1 MOL     -0.009654
    154 H72        -8.4410    2.1020    2.8850 hc        1 MOL     -0.009654
    155 H73        -7.0160    3.4180    4.5930 hc        1 MOL      0.038564
    156 H74        -5.9910    1.9600    4.8210 hc        1 MOL      0.038564
    157 H75        -8.2210    0.7780    5.5540 hx        1 MOL      0.058953
    158 H76        -9.0000    2.3230    5.2590 hx        1 MOL      0.058953
    159 H77        -8.6230    1.9170    7.4980 hn        1 MOL      0.258479
    160 H78        -7.0710    1.7480    7.3990 hn        1 MOL      0.258479
    161 H79        -7.7400    3.2040    7.1030 hn        1 MOL      0.258479
    162 N14        -4.8370    1.9480   -0.5160 n         1 MOL     -0.014644
    163 C49        -3.8450    2.3430   -1.4150 c3        1 MOL     -0.065401
    164 C50        -4.3140    2.3350   -2.8360 c         1 MOL      0.374317
    165 O22        -4.0020    3.2460   -3.6090 o         1 MOL     -0.537175
    166 C51        -2.5950    1.4480   -1.2550 c3        1 MOL      0.253036
    167 C52        -1.7520    1.8740   -0.0720 c3        1 MOL     -0.323182
    168 C53        -0.5120    1.0330    0.1960 c         1 MOL      0.598915
    169 O23         0.5640    1.5900    0.6100 o         1 MOL     -0.665020
    170 O24        -0.5470   -0.1890    0.2230 o         1 MOL     -0.665020
    171 H80        -4.4420    1.4250    0.2630 hn        1 MOL      0.039284
    172 H81        -3.4820    3.3430   -1.1710 h1        1 MOL      0.049007
    173 H82        -2.1140    1.5600   -2.2270 hc        1 MOL      0.028120
    174 H83        -2.8910    0.4150   -1.0890 hc        1 MOL      0.028120
    175 H84        -2.3430    1.9760    0.8330 hc        1 MOL      0.056167
    176 H85        -1.3420    2.8390   -0.3840 hc        1 MOL      0.056167
    177 N15        -5.1020    1.3000   -3.2260 n         1 MOL      0.024068
    178 C54        -5.6500    1.0630   -4.5580 c3        1 MOL     -0.350254
    179 H86        -6.3470    1.8620   -4.8100 h1        1 MOL      0.117292
    180 H87        -4.8410    1.0430   -5.2870 h1        1 MOL      0.117292
    181 H88        -6.1750    0.1070   -4.5700 h1        1 MOL      0.117292
    182 H89        -5.2520    0.6140   -2.4940 hn        1 MOL      0.133829
    183 Ca1         1.6230   -0.8070    1.3150 Ca        1 MOL      1.722378
    184 O25         0.3960    0.2180    3.4450 oh        1 MOL     -0.815841
    185 H90         0.9410    0.9380    3.7570 ho        1 MOL      0.371416
    186 H91        -0.2770    0.1110    4.1220 ho        1 MOL      0.371416
    187 O26         0.3040   -3.0090    2.2340 oh        1 MOL     -0.815841
    188 H92        -0.6100   -2.9890    2.5090 ho        1 MOL      0.371416
    189 H93         0.5700   -3.9150    2.3540 ho        1 MOL      0.371416
@<TRIPOS>BOND
     1    1    2 1   
     2    1    4 1   
     3    1    5 1   
     4    1    6 1   
     5    2    3 2   
     6    2    7 1   
     7    7    8 1   
     8    7   15 1   
     9    8    9 1   
    10    8   11 1   
    11    8   16 1   
    12    9   10 2   
    13    9   19 1   
    14   11   12 1   
    15   11   17 1   
    16   11   18 1   
    17   12   13 1   
    18   12   14 1   
    19   19   20 1   
    20   19   28 1   
    21   20   21 1   
    22   20   23 1   
    23   20   29 1   
    24   21   22 2   
    25   21   41 1   
    26   23   24 1   
    27   23   30 1   
    28   23   31 1   
    29   24   25 1   
    30   24   32 1   
    31   24   33 1   
    32   25   26 1   
    33   25   34 1   
    34   25   35 1   
    35   26   27 1   
    36   26   36 1   
    37   26   37 1   
    38   27   38 1   
    39   27   39 1   
    40   27   40 1   
    41   41   42 1   
    42   41   49 1   
    43   42   43 1   
    44   42   45 1   
    45   42   50 1   
    46   43   44 2   
    47   43   53 1   
    48   45   46 1   
    49   45   51 1   
    50   45   52 1   
    51   46   47 1   
    52   46   48 1   
    53   53   54 1   
    54   53   57 1   
    55   54   55 1   
    56   54   58 1   
    57   54   59 1   
    58   55   56 2   
    59   55   60 1   
    60   60   61 1   
    61   60   68 1   
    62   61   62 1   
    63   61   64 1   
    64   61   69 1   
    65   62   63 2   
    66   62   72 1   
    67   64   65 1   
    68   64   70 1   
    69   64   71 1   
    70   65   66 1   
    71   65   67 1   
    72   72   73 1   
    73   72   76 1   
    74   73   74 1   
    75   73   77 1   
    76   73   78 1   
    77   74   75 2   
    78   74   79 1   
    79   79   80 1   
    80   79   86 1   
    81   80   81 1   
    82   80   83 1   
    83   80   87 1   
    84   81   82 2   
    85   81   93 1   
    86   83   84 1   
    87   83   85 1   
    88   83   88 1   
    89   84   90 1   
    90   84   91 1   
    91   84   92 1   
    92   85   89 1   
    93   93   94 1   
    94   93  101 1   
    95   94   95 1   
    96   94   97 1   
    97   94  102 1   
    98   95   96 2   
    99   95  112 1   
   100   97   98 1   
   101   97   99 1   
   102   97  103 1   
   103   98  100 1   
   104   98  104 1   
   105   98  105 1   
   106   99  106 1   
   107   99  107 1   
   108   99  108 1   
   109  100  109 1   
   110  100  110 1   
   111  100  111 1   
   112  112  113 1   
   113  112  119 1   
   114  113  114 1   
   115  113  116 1   
   116  113  120 1   
   117  114  115 2   
   118  114  126 1   
   119  116  117 1   
   120  116  118 1   
   121  116  121 1   
   122  117  123 1   
   123  117  124 1   
   124  117  125 1   
   125  118  122 1   
   126  126  127 1   
   127  126  133 1   
   128  127  128 1   
   129  127  130 1   
   130  127  134 1   
   131  128  129 2   
   132  128  140 1   
   133  130  131 1   
   134  130  132 1   
   135  130  135 1   
   136  131  137 1   
   137  131  138 1   
   138  131  139 1   
   139  132  136 1   
   140  140  141 1   
   141  140  149 1   
   142  141  142 1   
   143  141  144 1   
   144  141  150 1   
   145  142  143 2   
   146  142  162 1   
   147  144  145 1   
   148  144  151 1   
   149  144  152 1   
   150  145  146 1   
   151  145  153 1   
   152  145  154 1   
   153  146  147 1   
   154  146  155 1   
   155  146  156 1   
   156  147  148 1   
   157  147  157 1   
   158  147  158 1   
   159  148  159 1   
   160  148  160 1   
   161  148  161 1   
   162  162  163 1   
   163  162  171 1   
   164  163  164 1   
   165  163  166 1   
   166  163  172 1   
   167  164  165 2   
   168  164  177 1   
   169  166  167 1   
   170  166  173 1   
   171  166  174 1   
   172  167  168 1   
   173  167  175 1   
   174  167  176 1   
   175  168  169 1   
   176  168  170 1   
   177  177  178 1   
   178  177  182 1   
   179  178  179 1   
   180  178  180 1   
   181  178  181 1   
   182  184  185 1   
   183  184  186 1   
   184  187  188 1   
   185  187  189 1   
@<TRIPOS>SUBSTRUCTURE
     1 MOL         1 TEMP              0 ****  ****    0 ROOT
