@<TRIPOS>MOLECULE
MOL
  189   185     1     0     0
SMALL
resp


@<TRIPOS>ATOM
      1 C1         -0.4120    3.1840    5.3190 c3        1 MOL     -0.384401
      2 C2         -0.8510    2.8740    3.8770 c         1 MOL      0.704995
      3 O1         -0.1850    3.2360    2.9170 o         1 MOL     -0.651099
      4 H1          0.6750    3.1400    5.3840 hc        1 MOL      0.100054
      5 H2         -0.7520    4.1820    5.5960 hc        1 MOL      0.100054
      6 H3         -0.8470    2.4500    5.9980 hc        1 MOL      0.100054
      7 N1         -2.0220    2.2920    3.6920 n         1 MOL     -0.615276
      8 C3         -2.5950    1.8310    2.3650 c3        1 MOL      0.322662
      9 C4         -3.3160    2.8950    1.5800 c         1 MOL      0.465446
     10 O2         -4.5320    3.0210    1.6280 o         1 MOL     -0.454509
     11 C5         -3.5200    0.6700    2.6350 c3        1 MOL     -0.420502
     12 C6         -4.2320    0.1320    1.4040 c         1 MOL      0.686890
     13 O3         -3.6520    0.3920    0.2930 o         1 MOL     -0.560441
     14 O4         -5.2540   -0.5570    1.5440 o         1 MOL     -0.560441
     15 H4         -2.4920    2.0910    4.5670 hn        1 MOL      0.323060
     16 H5         -1.7730    1.4460    1.7690 h1        1 MOL      0.052174
     17 H6         -4.2220    1.1400    3.3270 hc        1 MOL      0.080498
     18 H7         -2.9170   -0.0700    3.1490 hc        1 MOL      0.080498
     19 N2         -2.5080    3.7230    0.8650 n         1 MOL     -0.409368
     20 C7         -3.0660    5.0090    0.3590 c3        1 MOL     -0.124836
     21 C8         -4.0440    4.8240   -0.8210 c         1 MOL      0.459386
     22 O5         -4.9640    5.6490   -1.0170 o         1 MOL     -0.557837
     23 C9         -1.9430    5.9720   -0.1170 c3        1 MOL     -0.070289
     24 C10        -1.0750    6.6180    0.9750 c3        1 MOL      0.073735
     25 C11        -0.4550    7.9830    0.4810 c3        1 MOL      0.038560
     26 C12         0.6850    8.5580    1.2010 c3        1 MOL      0.023156
     27 N3          1.8670    7.7100    1.4220 n4        1 MOL     -0.361692
     28 H8         -1.5320    3.5450    0.7020 hn        1 MOL      0.337833
     29 H9         -3.7220    5.4540    1.1170 h1        1 MOL      0.119049
     30 H10        -2.4390    6.7230   -0.7380 hc        1 MOL      0.047090
     31 H11        -1.3210    5.4320   -0.8430 hc        1 MOL      0.047090
     32 H12        -0.1910    5.9960    1.1110 hc        1 MOL      0.003838
     33 H13        -1.5380    6.8020    1.9490 hc        1 MOL      0.003838
     34 H14        -1.1680    8.8000    0.4270 hc        1 MOL      0.015771
     35 H15        -0.1990    7.7530   -0.5570 hc        1 MOL      0.015771
     36 H16         0.3990    8.8770    2.1950 hx        1 MOL      0.074568
     37 H17         0.9620    9.4730    0.6730 hx        1 MOL      0.074568
     38 H18         1.7470    6.9410    2.0590 hn        1 MOL      0.331553
     39 H19         2.1360    7.3150    0.5290 hn        1 MOL      0.331553
     40 H20         2.5980    8.3230    1.7550 hn        1 MOL      0.331553
     41 N4         -3.8470    3.7340   -1.5710 n         1 MOL     -0.265835
     42 C13        -4.6780    3.4620   -2.8250 c3        1 MOL      0.050172
     43 C14        -5.7640    2.5130   -2.5510 c         1 MOL      0.366491
     44 O6         -6.6890    2.3930   -3.3440 o         1 MOL     -0.517841
     45 C15        -3.8240    3.1260   -4.0230 c3        1 MOL     -0.335440
     46 C16        -2.9140    1.9070   -3.7830 c         1 MOL      0.874620
     47 O7         -1.9040    1.8450   -4.4870 o         1 MOL     -0.736225
     48 O8         -3.1500    1.0790   -2.8610 o         1 MOL     -0.736225
     49 H21        -3.0860    3.1410   -1.2830 hn        1 MOL      0.194828
     50 H22        -5.2080    4.3690   -3.1250 h1        1 MOL      0.106948
     51 H23        -3.2830    3.9950   -4.3910 hc        1 MOL      0.088777
     52 H24        -4.5330    2.7950   -4.7870 hc        1 MOL      0.088777
     53 N5         -5.8320    1.8460   -1.4210 n         1 MOL      0.144435
     54 C17        -7.0380    1.2550   -0.8790 c3        1 MOL     -0.286086
     55 C18        -7.4080    0.0110   -1.7540 c         1 MOL      0.475556
     56 O9         -8.3620   -0.0660   -2.5650 o         1 MOL     -0.537978
     57 H25        -5.0850    1.8070   -0.7550 hn        1 MOL     -0.008289
     58 H26        -7.8440    1.9830   -0.8840 h1        1 MOL      0.121000
     59 H27        -7.0020    0.9360    0.1680 h1        1 MOL      0.121000
     60 N6         -6.6750   -1.0580   -1.5130 n         1 MOL     -0.115939
     61 C19        -6.8410   -2.4860   -1.9500 c3        1 MOL      0.091442
     62 C20        -7.0020   -3.4170   -0.6770 c         1 MOL      0.346894
     63 O10        -7.4310   -4.5830   -0.7470 o         1 MOL     -0.504111
     64 C21        -5.6690   -2.9050   -2.8600 c3        1 MOL     -0.167918
     65 C22        -4.3020   -2.4530   -2.3550 c         1 MOL      0.691163
     66 O11        -4.1020   -2.3490   -1.0870 o         1 MOL     -0.717488
     67 O12        -3.2880   -2.1390   -3.0700 o         1 MOL     -0.717488
     68 H28        -5.8760   -0.8940   -0.9030 hn        1 MOL     -0.027727
     69 H29        -7.7970   -2.5420   -2.4700 h1        1 MOL      0.077563
     70 H30        -5.7810   -2.4130   -3.8220 hc        1 MOL      0.062054
     71 H31        -5.7110   -3.9760   -3.0370 hc        1 MOL      0.062054
     72 N7         -6.5900   -2.8870    0.5620 n         1 MOL     -0.205121
     73 C23        -6.4810   -3.6030    1.8380 c3        1 MOL     -0.098603
     74 C24        -5.1220   -4.2070    2.1750 c         1 MOL      0.471261
     75 O13        -4.9390   -5.1140    2.9450 o         1 MOL     -0.568632
     76 H32        -6.2550   -1.9410    0.4770 hn        1 MOL      0.146444
     77 H33        -7.2130   -4.4100    1.8660 h1        1 MOL      0.087324
     78 H34        -6.7450   -2.8580    2.5920 h1        1 MOL      0.087324
     79 N8         -4.1010   -3.8050    1.4080 n         1 MOL     -0.018554
     80 C25        -2.6840   -4.3350    1.4340 c3        1 MOL     -0.402338
     81 C26        -1.6050   -3.2690    1.5170 c         1 MOL      0.798336
     82 O14        -1.8550   -2.1450    1.0680 o         1 MOL     -0.696883
     83 C27        -2.5200   -5.3520    0.2280 c3        1 MOL      0.593428
     84 C28        -3.4030   -6.5460    0.4740 c3        1 MOL     -0.484361
     85 O15        -2.7610   -4.7550   -0.9570 oh        1 MOL     -0.617123
     86 H35        -4.3230   -3.0520    0.7680 hn        1 MOL      0.118747
     87 H36        -2.5870   -4.8280    2.4060 h1        1 MOL      0.117158
     88 H37        -1.5160   -5.7550    0.3290 h1        1 MOL     -0.053229
     89 H38        -3.5530   -4.2480   -0.7500 ho        1 MOL      0.402596
     90 H39        -3.3360   -6.7630    1.5370 hc        1 MOL      0.116024
     91 H40        -4.4210   -6.2490    0.2050 hc        1 MOL      0.116024
     92 H41        -3.0320   -7.3430   -0.1670 hc        1 MOL      0.116024
     93 N9         -0.4620   -3.6270    2.1540 n         1 MOL     -0.673599
     94 C29         0.6950   -2.7140    2.2420 c3        1 MOL     -0.006086
     95 C30         1.9550   -3.2250    1.6420 c         1 MOL      0.559075
     96 O16         2.5750   -4.2040    2.0880 o         1 MOL     -0.565534
     97 C31         1.0010   -2.2680    3.7300 c3        1 MOL      0.394323
     98 C32        -0.1980   -2.1810    4.6850 c3        1 MOL      0.263184
     99 C33         1.8580   -0.9810    3.6120 c3        1 MOL     -0.517562
    100 C34         0.1660   -1.7710    6.1100 c3        1 MOL     -0.448297
    101 H42        -0.3980   -4.5840    2.4810 hn        1 MOL      0.340535
    102 H43         0.5070   -1.8360    1.6270 h1        1 MOL      0.099581
    103 H44         1.5950   -3.1010    4.1150 hc        1 MOL     -0.077848
    104 H45        -0.6610   -3.1600    4.6470 hc        1 MOL     -0.046860
    105 H46        -0.9000   -1.5340    4.1490 hc        1 MOL     -0.046860
    106 H47         2.1070   -0.6450    4.6180 hc        1 MOL      0.079188
    107 H48         2.7510   -1.0020    2.9880 hc        1 MOL      0.079188
    108 H49         1.2180   -0.1780    3.2290 hc        1 MOL      0.079188
    109 H50         0.2080   -0.6820    6.1130 hc        1 MOL      0.103276
    110 H51        -0.7260   -1.8740    6.7300 hc        1 MOL      0.103276
    111 H52         1.0760   -2.3080    6.3970 hc        1 MOL      0.103276
    112 N10         2.4180   -2.5580    0.5810 n         1 MOL     -0.286526
    113 C35         3.6710   -2.8150   -0.1050 c3        1 MOL     -0.128950
    114 C36         4.8740   -2.2290    0.5660 c         1 MOL      0.398760
    115 O17         4.6940   -1.2650    1.2730 o         1 MOL     -0.299074
    116 C37         3.6060   -2.2480   -1.5610 c3        1 MOL      0.327040
    117 C38         2.7660   -3.0150   -2.5740 c3        1 MOL     -0.536627
    118 O18         3.2350   -0.8900   -1.6540 oh        1 MOL     -0.545191
    119 H53         1.9080   -1.7570    0.2250 hn        1 MOL      0.250598
    120 H54         3.7590   -3.9030   -0.1630 h1        1 MOL      0.095659
    121 H55         4.6490   -2.3770   -1.8690 h1        1 MOL     -0.005350
    122 H56         2.3000   -0.8330   -1.4210 ho        1 MOL      0.352170
    123 H57         3.0770   -4.0550   -2.6690 hc        1 MOL      0.150524
    124 H58         1.7350   -3.0360   -2.2140 hc        1 MOL      0.150524
    125 H59         2.8680   -2.5140   -3.5380 hc        1 MOL      0.150524
    126 N11         6.1130   -2.5830    0.3670 n         1 MOL     -0.338926
    127 C39         7.3510   -1.9550    0.7410 c3        1 MOL     -0.013201
    128 C40         7.5330   -0.5510    0.2520 c         1 MOL      0.128817
    129 O19         8.1050    0.2710    0.9120 o         1 MOL     -0.456066
    130 C41         8.5450   -2.6470    0.0720 c3        1 MOL      0.252481
    131 C42         8.8780   -4.0040    0.6080 c3        1 MOL     -0.542768
    132 O20         8.5640   -2.7890   -1.3730 oh        1 MOL     -0.710571
    133 H60         6.1370   -3.3230   -0.3070 hn        1 MOL      0.252649
    134 H61         7.5860   -1.9460    1.8110 h1        1 MOL      0.151547
    135 H62         9.4350   -2.0110    0.1760 h1        1 MOL      0.084175
    136 H63         9.2540   -3.4030   -1.6410 ho        1 MOL      0.442948
    137 H64         8.5490   -4.0920    1.6460 hc        1 MOL      0.156816
    138 H65         8.4260   -4.7290   -0.0810 hc        1 MOL      0.156816
    139 H66         9.9460   -4.1860    0.5600 hc        1 MOL      0.156816
    140 N12         6.9800   -0.2600   -0.9140 n         1 MOL      0.150593
    141 C43         6.8170    1.1110   -1.4650 c3        1 MOL     -0.092226
    142 C44         5.8710    2.1000   -0.7550 c         1 MOL      0.369859
    143 O21         6.1700    3.3070   -0.6960 o         1 MOL     -0.521832
    144 C45         6.5070    1.1710   -2.9620 c3        1 MOL     -0.203969
    145 C46         7.2020    0.0310   -3.7640 c3        1 MOL      0.058806
    146 C47         8.7670    0.2790   -3.7570 c3        1 MOL     -0.200956
    147 C48         9.5310   -0.9610   -4.2290 c3        1 MOL      0.275057
    148 N13        10.8830   -0.6360   -4.6770 n4        1 MOL     -0.359864
    149 H67         6.6530   -1.0570   -1.4560 hn        1 MOL      0.210330
    150 H68         7.7810    1.6110   -1.3390 h1        1 MOL      0.068749
    151 H69         6.6980    2.1580   -3.3930 hc        1 MOL      0.101414
    152 H70         5.4490    1.0010   -3.1480 hc        1 MOL      0.101414
    153 H71         6.8210    0.1050   -4.7820 hc        1 MOL      0.014540
    154 H72         6.8330   -0.9220   -3.3860 hc        1 MOL      0.014540
    155 H73         9.0770    0.4760   -2.7300 hc        1 MOL      0.075656
    156 H74         8.9590    1.0880   -4.4570 hc        1 MOL      0.075656
    157 H75         9.0340   -1.4610   -5.0620 hx        1 MOL     -0.001287
    158 H76         9.6550   -1.7030   -3.4440 hx        1 MOL     -0.001287
    159 H77        11.4970   -0.5070   -3.8890 hn        1 MOL      0.289073
    160 H78        11.1650   -1.3810   -5.3000 hn        1 MOL      0.289073
    161 H79        10.8820    0.2300   -5.2010 hn        1 MOL      0.289073
    162 N14         4.8800    1.5420   -0.0960 n         1 MOL      0.030572
    163 C49         3.9730    2.2450    0.8470 c3        1 MOL     -0.083764
    164 C50         4.6330    2.4980    2.1760 c         1 MOL      0.412589
    165 O22         4.6690    3.5920    2.7740 o         1 MOL     -0.536809
    166 C51         2.6270    1.4850    0.9420 c3        1 MOL      0.056537
    167 C52         1.6990    1.7890   -0.2740 c3        1 MOL     -0.000126
    168 C53         0.4850    0.9170   -0.3600 c         1 MOL      0.761291
    169 O23         0.6880   -0.3290   -0.4420 o         1 MOL     -0.743841
    170 O24        -0.6210    1.4370   -0.3810 o         1 MOL     -0.743841
    171 H80         4.9180    0.5290   -0.1260 hn        1 MOL     -0.046813
    172 H81         3.7810    3.2690    0.5350 h1        1 MOL      0.056420
    173 H82         2.0790    1.6260    1.8780 hc        1 MOL      0.035677
    174 H83         2.8830    0.4250    0.8770 hc        1 MOL      0.035677
    175 H84         2.3030    1.7700   -1.1840 hc        1 MOL     -0.037533
    176 H85         1.3470    2.8130   -0.1380 hc        1 MOL     -0.037533
    177 N15         5.3670    1.4640    2.7560 n         1 MOL     -0.147504
    178 C54         6.2460    1.5960    3.9400 c3        1 MOL     -0.240076
    179 H86         7.2760    1.3830    3.6520 h1        1 MOL      0.100878
    180 H87         6.1800    2.6110    4.3300 h1        1 MOL      0.100878
    181 H88         5.9310    0.8900    4.7080 h1        1 MOL      0.100878
    182 H89         5.3440    0.5610    2.3140 hn        1 MOL      0.185325
    183 Ca1        -1.9770   -0.7610   -1.2500 Ca        1 MOL      1.767100
    184 O25        -0.7080   -3.0310   -1.6980 oh        1 MOL     -0.864830
    185 H90        -0.1280   -3.2940   -2.4140 ho        1 MOL      0.398643
    186 H91        -1.4180   -3.6730   -1.7120 ho        1 MOL      0.398643
    187 O26        -0.6700   -0.4010   -3.6360 oh        1 MOL     -0.864830
    188 H92        -0.9140    0.4740   -3.9600 ho        1 MOL      0.398643
    189 H93        -0.3910   -0.8660   -4.4280 ho        1 MOL      0.398643
@<TRIPOS>BOND
     1    1    2 1   
     2    1    4 1   
     3    1    5 1   
     4    1    6 1   
     5    2    3 2   
     6    2    7 1   
     7    7    8 1   
     8    7   15 1   
     9    8    9 1   
    10    8   11 1   
    11    8   16 1   
    12    9   10 2   
    13    9   19 1   
    14   11   12 1   
    15   11   17 1   
    16   11   18 1   
    17   12   13 1   
    18   12   14 1   
    19   19   20 1   
    20   19   28 1   
    21   20   21 1   
    22   20   23 1   
    23   20   29 1   
    24   21   22 2   
    25   21   41 1   
    26   23   24 1   
    27   23   30 1   
    28   23   31 1   
    29   24   25 1   
    30   24   32 1   
    31   24   33 1   
    32   25   26 1   
    33   25   34 1   
    34   25   35 1   
    35   26   27 1   
    36   26   36 1   
    37   26   37 1   
    38   27   38 1   
    39   27   39 1   
    40   27   40 1   
    41   41   42 1   
    42   41   49 1   
    43   42   43 1   
    44   42   45 1   
    45   42   50 1   
    46   43   44 2   
    47   43   53 1   
    48   45   46 1   
    49   45   51 1   
    50   45   52 1   
    51   46   47 1   
    52   46   48 1   
    53   53   54 1   
    54   53   57 1   
    55   54   55 1   
    56   54   58 1   
    57   54   59 1   
    58   55   56 2   
    59   55   60 1   
    60   60   61 1   
    61   60   68 1   
    62   61   62 1   
    63   61   64 1   
    64   61   69 1   
    65   62   63 2   
    66   62   72 1   
    67   64   65 1   
    68   64   70 1   
    69   64   71 1   
    70   65   66 1   
    71   65   67 1   
    72   72   73 1   
    73   72   76 1   
    74   73   74 1   
    75   73   77 1   
    76   73   78 1   
    77   74   75 2   
    78   74   79 1   
    79   79   80 1   
    80   79   86 1   
    81   80   81 1   
    82   80   83 1   
    83   80   87 1   
    84   81   82 2   
    85   81   93 1   
    86   83   84 1   
    87   83   85 1   
    88   83   88 1   
    89   84   90 1   
    90   84   91 1   
    91   84   92 1   
    92   85   89 1   
    93   93   94 1   
    94   93  101 1   
    95   94   95 1   
    96   94   97 1   
    97   94  102 1   
    98   95   96 2   
    99   95  112 1   
   100   97   98 1   
   101   97   99 1   
   102   97  103 1   
   103   98  100 1   
   104   98  104 1   
   105   98  105 1   
   106   99  106 1   
   107   99  107 1   
   108   99  108 1   
   109  100  109 1   
   110  100  110 1   
   111  100  111 1   
   112  112  113 1   
   113  112  119 1   
   114  113  114 1   
   115  113  116 1   
   116  113  120 1   
   117  114  115 2   
   118  114  126 1   
   119  116  117 1   
   120  116  118 1   
   121  116  121 1   
   122  117  123 1   
   123  117  124 1   
   124  117  125 1   
   125  118  122 1   
   126  126  127 1   
   127  126  133 1   
   128  127  128 1   
   129  127  130 1   
   130  127  134 1   
   131  128  129 2   
   132  128  140 1   
   133  130  131 1   
   134  130  132 1   
   135  130  135 1   
   136  131  137 1   
   137  131  138 1   
   138  131  139 1   
   139  132  136 1   
   140  140  141 1   
   141  140  149 1   
   142  141  142 1   
   143  141  144 1   
   144  141  150 1   
   145  142  143 2   
   146  142  162 1   
   147  144  145 1   
   148  144  151 1   
   149  144  152 1   
   150  145  146 1   
   151  145  153 1   
   152  145  154 1   
   153  146  147 1   
   154  146  155 1   
   155  146  156 1   
   156  147  148 1   
   157  147  157 1   
   158  147  158 1   
   159  148  159 1   
   160  148  160 1   
   161  148  161 1   
   162  162  163 1   
   163  162  171 1   
   164  163  164 1   
   165  163  166 1   
   166  163  172 1   
   167  164  165 2   
   168  164  177 1   
   169  166  167 1   
   170  166  173 1   
   171  166  174 1   
   172  167  168 1   
   173  167  175 1   
   174  167  176 1   
   175  168  169 1   
   176  168  170 1   
   177  177  178 1   
   178  177  182 1   
   179  178  179 1   
   180  178  180 1   
   181  178  181 1   
   182  184  185 1   
   183  184  186 1   
   184  187  188 1   
   185  187  189 1   
@<TRIPOS>SUBSTRUCTURE
     1 MOL         1 TEMP              0 ****  ****    0 ROOT
