@<TRIPOS>MOLECULE
MOL
  189   185     1     0     0
SMALL
resp


@<TRIPOS>ATOM
      1 C1         -0.6790    1.8560    6.2460 c3        1 MOL     -0.344804
      2 C2         -0.9620    1.7530    4.7930 c         1 MOL      0.744164
      3 O1         -0.1230    2.1070    4.0090 o         1 MOL     -0.627786
      4 H1          0.3080    2.2920    6.3930 hc        1 MOL      0.080439
      5 H2         -1.4300    2.4880    6.7190 hc        1 MOL      0.080439
      6 H3         -0.7080    0.8620    6.6930 hc        1 MOL      0.080439
      7 N1         -2.0950    1.2010    4.4210 n         1 MOL     -0.560163
      8 C3         -2.5500    1.1990    3.0000 c3        1 MOL      0.023322
      9 C4         -2.9190    2.6390    2.5830 c         1 MOL      0.471765
     10 O2         -3.8500    3.2780    3.1350 o         1 MOL     -0.537357
     11 C5         -3.6390    0.1660    2.7720 c3        1 MOL     -0.042063
     12 C6         -4.1940    0.0800    1.3660 c         1 MOL      0.830577
     13 O3         -3.4520    0.1710    0.3800 o         1 MOL     -0.716442
     14 O4         -5.3970    0.0520    1.2700 o         1 MOL     -0.716442
     15 H4         -2.7060    0.8520    5.1500 hn        1 MOL      0.313223
     16 H5         -1.6970    0.9510    2.3740 h1        1 MOL      0.051905
     17 H6         -4.4350    0.3250    3.5060 hc        1 MOL     -0.005096
     18 H7         -3.2810   -0.8560    2.8690 hc        1 MOL     -0.005096
     19 N2         -2.1530    3.0980    1.5750 n         1 MOL     -0.265718
     20 C7         -2.1590    4.5420    1.1350 c3        1 MOL      0.087558
     21 C8         -3.2420    4.8390    0.0660 c         1 MOL      0.337851
     22 O5         -3.6870    5.9520   -0.0720 o         1 MOL     -0.569611
     23 C9         -0.8710    4.8470    0.3800 c3        1 MOL      0.131688
     24 C10        -0.6820    6.3280    0.2970 c3        1 MOL      0.083082
     25 C11        -0.2510    7.0210    1.5290 c3        1 MOL     -0.085803
     26 C12        -0.3660    8.5310    1.2650 c3        1 MOL      0.048312
     27 N3          0.3510    9.2170    2.3210 n4        1 MOL     -0.355126
     28 H8         -1.5330    2.4660    1.0890 hn        1 MOL      0.267405
     29 H9         -2.2320    5.1910    2.0050 h1        1 MOL      0.036660
     30 H10        -0.9180    4.4900   -0.6490 hc        1 MOL     -0.031098
     31 H11        -0.0050    4.4970    0.9420 hc        1 MOL     -0.031098
     32 H12        -1.5070    6.9000   -0.1290 hc        1 MOL     -0.032353
     33 H13         0.0700    6.5580   -0.4650 hc        1 MOL     -0.032353
     34 H14         0.7990    6.8200    1.7250 hc        1 MOL      0.036920
     35 H15        -0.8030    6.6940    2.4200 hc        1 MOL      0.036920
     36 H16        -1.3970    8.8910    1.2650 hx        1 MOL      0.097326
     37 H17        -0.0030    8.8050    0.2690 hx        1 MOL      0.097326
     38 H18        -0.1070    9.0020    3.2020 hn        1 MOL      0.322199
     39 H19         1.2340    8.7270    2.2600 hn        1 MOL      0.322199
     40 H20         0.5590   10.1950    2.2350 hn        1 MOL      0.322199
     41 N4         -3.6420    3.8450   -0.7110 n         1 MOL     -0.055757
     42 C13        -4.4400    3.8930   -1.9480 c3        1 MOL      0.034395
     43 C14        -5.7190    3.0470   -1.8300 c         1 MOL      0.330521
     44 O6         -6.4500    2.8270   -2.8120 o         1 MOL     -0.459233
     45 C15        -3.6540    3.6040   -3.2410 c3        1 MOL     -0.115957
     46 C16        -2.6970    2.3690   -3.1280 c         1 MOL      0.696821
     47 O7         -2.0510    2.0190   -4.1460 o         1 MOL     -0.697334
     48 O8         -2.5670    1.6780   -2.0500 o         1 MOL     -0.697334
     49 H21        -3.1020    2.9980   -0.6120 hn        1 MOL      0.104531
     50 H22        -4.8000    4.9090   -2.0320 h1        1 MOL      0.065520
     51 H23        -3.0550    4.4930   -3.4460 hc        1 MOL      0.037640
     52 H24        -4.3490    3.4060   -4.0570 hc        1 MOL      0.037640
     53 N5         -6.1680    2.6240   -0.6380 n         1 MOL     -0.237771
     54 C17        -7.3130    1.7550   -0.5240 c3        1 MOL     -0.172380
     55 C18        -7.3740    0.5500   -1.4450 c         1 MOL      0.468088
     56 O9         -8.3300    0.4110   -2.1740 o         1 MOL     -0.552933
     57 H25        -5.5820    2.8550    0.1440 hn        1 MOL      0.207716
     58 H26        -8.1760    2.3960   -0.6910 h1        1 MOL      0.103826
     59 H27        -7.3800    1.4630    0.5260 h1        1 MOL      0.103826
     60 N6         -6.4500   -0.3830   -1.3190 n         1 MOL     -0.095649
     61 C19        -6.7520   -1.7580   -1.8490 c3        1 MOL     -0.075010
     62 C20        -6.8110   -2.8950   -0.7880 c         1 MOL      0.356981
     63 O10        -7.2610   -4.0210   -1.1080 o         1 MOL     -0.531552
     64 C21        -5.7330   -2.1240   -2.9700 c3        1 MOL      0.000183
     65 C22        -4.2890   -1.7960   -2.6090 c         1 MOL      0.495154
     66 O11        -3.8160   -2.4350   -1.5840 o         1 MOL     -0.574755
     67 O12        -3.5960   -0.9990   -3.1280 o         1 MOL     -0.574755
     68 H28        -5.6230   -0.2240   -0.7720 hn        1 MOL      0.111066
     69 H29        -7.7030   -1.7660   -2.3830 h1        1 MOL      0.133675
     70 H30        -6.0160   -1.5790   -3.8750 hc        1 MOL      0.018761
     71 H31        -5.9230   -3.1420   -3.3040 hc        1 MOL      0.018761
     72 N7         -6.4310   -2.6420    0.4570 n         1 MOL     -0.192474
     73 C23        -6.3540   -3.5670    1.6320 c3        1 MOL     -0.064158
     74 C24        -4.9660   -4.2830    1.7200 c         1 MOL      0.502856
     75 O13        -4.9020   -5.2190    2.5150 o         1 MOL     -0.579577
     76 H32        -6.1110   -1.6940    0.6010 hn        1 MOL      0.159348
     77 H33        -7.2260   -4.2010    1.8250 h1        1 MOL      0.084323
     78 H34        -6.2870   -2.9090    2.5000 h1        1 MOL      0.084323
     79 N8         -3.9190   -3.8980    0.9700 n         1 MOL     -0.133866
     80 C25        -2.6140   -4.6140    0.8190 c3        1 MOL     -0.244013
     81 C26        -1.3450   -3.7230    0.7540 c         1 MOL      0.715255
     82 O14        -1.4530   -2.5040    0.6130 o         1 MOL     -0.668991
     83 C27        -2.6510   -5.5020   -0.4960 c3        1 MOL      0.423424
     84 C28        -3.8870   -6.3230   -0.6300 c3        1 MOL     -0.347138
     85 O15        -2.5560   -4.7220   -1.6610 oh        1 MOL     -0.630631
     86 H35        -4.1270   -3.0730    0.4320 hn        1 MOL      0.113277
     87 H36        -2.4830   -5.4210    1.5410 h1        1 MOL      0.086817
     88 H37        -1.7900   -6.1670   -0.4060 h1        1 MOL     -0.016105
     89 H38        -2.9720   -3.8640   -1.4890 ho        1 MOL      0.352073
     90 H39        -4.7390   -5.8000   -1.0710 hc        1 MOL      0.090736
     91 H40        -3.7130   -7.2420   -1.1980 hc        1 MOL      0.090736
     92 H41        -4.3050   -6.6130    0.3360 hc        1 MOL      0.090736
     93 N9         -0.1510   -4.2720    0.9010 n         1 MOL     -0.540717
     94 C29         1.1010   -3.5570    1.2780 c3        1 MOL      0.013396
     95 C30         2.2320   -3.9110    0.3350 c         1 MOL      0.472363
     96 O16         2.5960   -5.0460    0.3130 o         1 MOL     -0.539434
     97 C31         1.4280   -3.8020    2.7790 c3        1 MOL      0.040919
     98 C32         0.2840   -3.3460    3.7610 c3        1 MOL      0.055309
     99 C33         2.7850   -3.2760    3.1760 c3        1 MOL     -0.145360
    100 C34         0.2350   -1.8380    4.1020 c3        1 MOL     -0.041868
    101 H42        -0.1630   -5.2690    1.0980 hn        1 MOL      0.299456
    102 H43         0.9290   -2.4840    1.1620 h1        1 MOL      0.180116
    103 H44         1.3540   -4.8730    2.9410 hc        1 MOL      0.021294
    104 H45         0.4060   -3.9390    4.6600 hc        1 MOL     -0.008749
    105 H46        -0.6870   -3.7210    3.4350 hc        1 MOL     -0.008749
    106 H47         3.0410   -2.2820    2.8190 hc        1 MOL      0.017057
    107 H48         2.6650   -3.2380    4.2570 hc        1 MOL      0.017057
    108 H49         3.6330   -3.9340    2.9750 hc        1 MOL      0.017057
    109 H50         1.0510   -1.4440    4.7060 hc        1 MOL      0.017365
    110 H51        -0.0280   -1.2330    3.2310 hc        1 MOL      0.017365
    111 H52        -0.5950   -1.6980    4.7930 hc        1 MOL      0.017365
    112 N10         2.7900   -2.9930   -0.4960 n         1 MOL     -0.074734
    113 C35         3.9570   -3.0660   -1.3790 c3        1 MOL     -0.257723
    114 C36         5.2560   -2.6140   -0.7250 c         1 MOL      0.381933
    115 O17         5.2580   -2.2390    0.4300 o         1 MOL     -0.288255
    116 C37         3.6150   -2.2970   -2.6640 c3        1 MOL      0.439817
    117 C38         2.3700   -2.8800   -3.4180 c3        1 MOL     -0.504792
    118 O18         3.2860   -0.9580   -2.2810 oh        1 MOL     -0.618053
    119 H53         2.3730   -2.0940   -0.3450 hn        1 MOL      0.111579
    120 H54         3.9840   -4.1230   -1.6310 h1        1 MOL      0.117230
    121 H55         4.4040   -2.2550   -3.4050 h1        1 MOL     -0.005624
    122 H56         2.4190   -1.1580   -1.9370 ho        1 MOL      0.360946
    123 H57         1.4580   -2.3670   -3.1190 hc        1 MOL      0.133574
    124 H58         2.4420   -2.6430   -4.4870 hc        1 MOL      0.133574
    125 H59         2.3980   -3.9500   -3.2400 hc        1 MOL      0.133574
    126 N11         6.4210   -2.6940   -1.4920 n         1 MOL     -0.295075
    127 C39         7.7630   -2.2660   -0.8800 c3        1 MOL     -0.138844
    128 C40         7.8040   -0.8290   -0.3990 c         1 MOL      0.493871
    129 O19         8.3020   -0.6030    0.6260 o         1 MOL     -0.469574
    130 C41         8.8660   -2.6730   -1.8480 c3        1 MOL      0.372575
    131 C42         8.9930   -4.0980   -2.1690 c3        1 MOL     -0.415766
    132 O20         8.6950   -1.9690   -3.0590 oh        1 MOL     -0.697065
    133 H60         6.4230   -3.3080   -2.2970 hn        1 MOL      0.247528
    134 H61         7.9480   -2.8280    0.0330 h1        1 MOL      0.113226
    135 H62         9.8050   -2.3180   -1.4190 h1        1 MOL      0.021330
    136 H63         9.3980   -2.2030   -3.6670 ho        1 MOL      0.433850
    137 H64         8.0260   -4.4860   -2.4920 hc        1 MOL      0.116894
    138 H65         9.7390   -4.1790   -2.9560 hc        1 MOL      0.116894
    139 H66         9.2140   -4.6540   -1.2520 hc        1 MOL      0.116894
    140 N12         7.2770    0.2130   -1.1010 n         1 MOL     -0.344778
    141 C43         7.1210    1.5540   -0.5460 c3        1 MOL     -0.057074
    142 C44         6.2930    1.5920    0.7010 c         1 MOL      0.366050
    143 O21         6.5690    2.3890    1.5760 o         1 MOL     -0.525439
    144 C45         6.5760    2.5290   -1.5920 c3        1 MOL     -0.057531
    145 C46         6.3900    4.0370   -1.2930 c3        1 MOL      0.011598
    146 C47         5.5690    4.9770   -2.2380 c3        1 MOL      0.034227
    147 C48         6.3000    5.0370   -3.5580 c3        1 MOL      0.096921
    148 N13         5.5590    5.8330   -4.6030 n4        1 MOL     -0.366273
    149 H67         6.8560   -0.0210   -1.9900 hn        1 MOL      0.245782
    150 H68         8.0980    1.9660   -0.3140 h1        1 MOL      0.126113
    151 H69         5.6670    2.0610   -1.9980 hc        1 MOL      0.029928
    152 H70         7.2940    2.4180   -2.4100 hc        1 MOL      0.029928
    153 H71         7.3870    4.4470   -1.1780 hc        1 MOL      0.028756
    154 H72         5.8390    4.0320   -0.3470 hc        1 MOL      0.028756
    155 H73         5.6740    5.9120   -1.6840 hc        1 MOL      0.009086
    156 H74         4.5260    4.6940   -2.3260 hc        1 MOL      0.009086
    157 H75         6.5340    4.0320   -3.8950 hx        1 MOL      0.056218
    158 H76         7.2100    5.6220   -3.3690 hx        1 MOL      0.056218
    159 H77         4.8110    5.3040   -5.0070 hn        1 MOL      0.327226
    160 H78         5.2170    6.6950   -4.1940 hn        1 MOL      0.327226
    161 H79         6.1790    6.1350   -5.3530 hn        1 MOL      0.327226
    162 N14         5.2710    0.7390    0.8450 n         1 MOL     -0.009503
    163 C49         4.2120    0.7300    1.9410 c3        1 MOL     -0.176483
    164 C50         4.6940   -0.0100    3.2500 c         1 MOL      0.447040
    165 O22         4.6190    0.4780    4.3790 o         1 MOL     -0.549648
    166 C51         2.8450    0.2030    1.5970 c3        1 MOL      0.175617
    167 C52         2.0650    1.0950    0.6060 c3        1 MOL      0.149184
    168 C53         0.9310    0.4230   -0.1010 c         1 MOL      0.655152
    169 O23         1.0200   -0.7700   -0.5260 o         1 MOL     -0.769919
    170 O24        -0.1630    1.0250   -0.0360 o         1 MOL     -0.769919
    171 H80         5.0950    0.1280    0.0550 hn        1 MOL      0.093423
    172 H81         4.1350    1.7770    2.2230 h1        1 MOL      0.076878
    173 H82         2.1670    0.0880    2.4330 hc        1 MOL     -0.001430
    174 H83         3.0030   -0.7940    1.1650 hc        1 MOL     -0.001430
    175 H84         2.7790    1.5110   -0.1130 hc        1 MOL     -0.062738
    176 H85         1.7090    1.9930    1.1020 hc        1 MOL     -0.062738
    177 N15         5.4070   -1.1190    3.0350 n         1 MOL      0.059898
    178 C54         6.2250   -1.7450    4.0060 c3        1 MOL     -0.317354
    179 H86         7.2740   -1.5740    3.7610 h1        1 MOL      0.104833
    180 H87         6.0090   -1.3250    4.9880 h1        1 MOL      0.104833
    181 H88         6.0240   -2.8160    4.0150 h1        1 MOL      0.104833
    182 H89         5.4650   -1.4050    2.0660 hn        1 MOL      0.024659
    183 Ca1        -1.7640   -0.6230   -1.3500 Ca        1 MOL      1.780348
    184 O25        -0.6280   -0.1040   -3.6760 oh        1 MOL     -0.882802
    185 H90        -1.1200    0.6670   -3.9300 ho        1 MOL      0.405661
    186 H91         0.1430   -0.1010   -4.2380 ho        1 MOL      0.405661
    187 O26        -1.0370   -2.8730   -2.6370 oh        1 MOL     -0.882802
    188 H92        -1.3340   -3.7680   -2.4750 ho        1 MOL      0.405661
    189 H93        -1.2570   -2.7040   -3.5520 ho        1 MOL      0.405661
@<TRIPOS>BOND
     1    1    2 1   
     2    1    4 1   
     3    1    5 1   
     4    1    6 1   
     5    2    3 2   
     6    2    7 1   
     7    7    8 1   
     8    7   15 1   
     9    8    9 1   
    10    8   11 1   
    11    8   16 1   
    12    9   10 2   
    13    9   19 1   
    14   11   12 1   
    15   11   17 1   
    16   11   18 1   
    17   12   13 1   
    18   12   14 1   
    19   19   20 1   
    20   19   28 1   
    21   20   21 1   
    22   20   23 1   
    23   20   29 1   
    24   21   22 2   
    25   21   41 1   
    26   23   24 1   
    27   23   30 1   
    28   23   31 1   
    29   24   25 1   
    30   24   32 1   
    31   24   33 1   
    32   25   26 1   
    33   25   34 1   
    34   25   35 1   
    35   26   27 1   
    36   26   36 1   
    37   26   37 1   
    38   27   38 1   
    39   27   39 1   
    40   27   40 1   
    41   41   42 1   
    42   41   49 1   
    43   42   43 1   
    44   42   45 1   
    45   42   50 1   
    46   43   44 2   
    47   43   53 1   
    48   45   46 1   
    49   45   51 1   
    50   45   52 1   
    51   46   47 1   
    52   46   48 1   
    53   53   54 1   
    54   53   57 1   
    55   54   55 1   
    56   54   58 1   
    57   54   59 1   
    58   55   56 2   
    59   55   60 1   
    60   60   61 1   
    61   60   68 1   
    62   61   62 1   
    63   61   64 1   
    64   61   69 1   
    65   62   63 2   
    66   62   72 1   
    67   64   65 1   
    68   64   70 1   
    69   64   71 1   
    70   65   66 1   
    71   65   67 1   
    72   72   73 1   
    73   72   76 1   
    74   73   74 1   
    75   73   77 1   
    76   73   78 1   
    77   74   75 2   
    78   74   79 1   
    79   79   80 1   
    80   79   86 1   
    81   80   81 1   
    82   80   83 1   
    83   80   87 1   
    84   81   82 2   
    85   81   93 1   
    86   83   84 1   
    87   83   85 1   
    88   83   88 1   
    89   84   90 1   
    90   84   91 1   
    91   84   92 1   
    92   85   89 1   
    93   93   94 1   
    94   93  101 1   
    95   94   95 1   
    96   94   97 1   
    97   94  102 1   
    98   95   96 2   
    99   95  112 1   
   100   97   98 1   
   101   97   99 1   
   102   97  103 1   
   103   98  100 1   
   104   98  104 1   
   105   98  105 1   
   106   99  106 1   
   107   99  107 1   
   108   99  108 1   
   109  100  109 1   
   110  100  110 1   
   111  100  111 1   
   112  112  113 1   
   113  112  119 1   
   114  113  114 1   
   115  113  116 1   
   116  113  120 1   
   117  114  115 2   
   118  114  126 1   
   119  116  117 1   
   120  116  118 1   
   121  116  121 1   
   122  117  123 1   
   123  117  124 1   
   124  117  125 1   
   125  118  122 1   
   126  126  127 1   
   127  126  133 1   
   128  127  128 1   
   129  127  130 1   
   130  127  134 1   
   131  128  129 2   
   132  128  140 1   
   133  130  131 1   
   134  130  132 1   
   135  130  135 1   
   136  131  137 1   
   137  131  138 1   
   138  131  139 1   
   139  132  136 1   
   140  140  141 1   
   141  140  149 1   
   142  141  142 1   
   143  141  144 1   
   144  141  150 1   
   145  142  143 2   
   146  142  162 1   
   147  144  145 1   
   148  144  151 1   
   149  144  152 1   
   150  145  146 1   
   151  145  153 1   
   152  145  154 1   
   153  146  147 1   
   154  146  155 1   
   155  146  156 1   
   156  147  148 1   
   157  147  157 1   
   158  147  158 1   
   159  148  159 1   
   160  148  160 1   
   161  148  161 1   
   162  162  163 1   
   163  162  171 1   
   164  163  164 1   
   165  163  166 1   
   166  163  172 1   
   167  164  165 2   
   168  164  177 1   
   169  166  167 1   
   170  166  173 1   
   171  166  174 1   
   172  167  168 1   
   173  167  175 1   
   174  167  176 1   
   175  168  169 1   
   176  168  170 1   
   177  177  178 1   
   178  177  182 1   
   179  178  179 1   
   180  178  180 1   
   181  178  181 1   
   182  184  185 1   
   183  184  186 1   
   184  187  188 1   
   185  187  189 1   
@<TRIPOS>SUBSTRUCTURE
     1 MOL         1 TEMP              0 ****  ****    0 ROOT
