@<TRIPOS>MOLECULE
MOL
  189   185     1     0     0
SMALL
resp


@<TRIPOS>ATOM
      1 C1          1.0520   -3.2250    6.4340 c3        1 MOL     -0.441035
      2 C2          1.1050   -3.2810    4.8590 c         1 MOL      0.719996
      3 O1          0.1700   -3.0400    4.1050 o         1 MOL     -0.545992
      4 H1          1.9950   -2.8340    6.8150 hc        1 MOL      0.109977
      5 H2          0.2360   -2.5720    6.7470 hc        1 MOL      0.109977
      6 H3          0.8880   -4.2280    6.8280 hc        1 MOL      0.109977
      7 N1          2.2740   -3.5570    4.2620 n         1 MOL     -0.638599
      8 C3          2.5850   -3.4720    2.8140 c3        1 MOL      0.222991
      9 C4          2.2980   -4.6910    1.9090 c         1 MOL      0.719728
     10 O2          2.4820   -5.8210    2.3530 o         1 MOL     -0.616963
     11 C5          4.0640   -3.0320    2.7380 c3        1 MOL     -0.245438
     12 C6          4.5620   -2.9840    1.3070 c         1 MOL      0.667640
     13 O3          3.9050   -2.3140    0.5040 o         1 MOL     -0.641599
     14 O4          5.5400   -3.7020    0.9630 o         1 MOL     -0.641599
     15 H4          3.0800   -3.5200    4.8620 hn        1 MOL      0.312166
     16 H5          1.9420   -2.7320    2.3340 h1        1 MOL     -0.067283
     17 H6          4.6640   -3.7340    3.3040 hc        1 MOL      0.011581
     18 H7          4.2590   -2.0280    3.1270 hc        1 MOL      0.011581
     19 N2          1.7650   -4.4640    0.6940 n         1 MOL     -0.452335
     20 C7          1.6280   -5.4580   -0.3950 c3        1 MOL     -0.119855
     21 C8          2.4330   -5.2490   -1.6840 c         1 MOL      0.545254
     22 O5          2.3760   -6.0700   -2.5770 o         1 MOL     -0.580532
     23 C9          0.1310   -5.7730   -0.7100 c3        1 MOL      0.283287
     24 C10        -0.6390   -4.5480   -1.2980 c3        1 MOL     -0.080915
     25 C11        -0.4660   -6.4080    0.5210 c3        1 MOL     -0.215457
     26 C12        -2.0960   -4.8840   -1.8230 c3        1 MOL     -0.264945
     27 H8          1.5300   -3.5270    0.4030 hn        1 MOL      0.262626
     28 H9          2.0980   -6.3810   -0.0430 h1        1 MOL      0.091084
     29 H10         0.1610   -6.5300   -1.4890 hc        1 MOL     -0.039352
     30 H11        -0.0910   -4.0390   -2.0800 hc        1 MOL      0.068898
     31 H12        -0.7510   -3.7830   -0.5280 hc        1 MOL      0.068898
     32 H13         0.1270   -7.2320    0.9290 hc        1 MOL      0.036585
     33 H14        -0.8160   -5.6660    1.2350 hc        1 MOL      0.036585
     34 H15        -1.3950   -6.8690    0.1970 hc        1 MOL      0.036585
     35 H16        -2.7580   -5.2100   -1.0310 hc        1 MOL      0.074074
     36 H17        -2.4800   -3.8980   -2.0600 hc        1 MOL      0.074074
     37 H18        -2.1210   -5.5680   -2.6690 hc        1 MOL      0.074074
     38 N3          3.1630   -4.1130   -1.8270 n         1 MOL     -0.447411
     39 C13         3.7120   -3.7350   -3.1590 c3        1 MOL      0.082939
     40 C14         5.0890   -3.0350   -3.1110 c         1 MOL      0.409928
     41 O6          5.7720   -2.9330   -4.1410 o         1 MOL     -0.565028
     42 C15         2.6930   -2.8380   -3.8110 c3        1 MOL     -0.187650
     43 C16         2.3500   -1.5450   -3.0480 c         1 MOL      0.661598
     44 O7          3.1840   -1.1530   -2.1790 o         1 MOL     -0.658443
     45 O8          1.2220   -1.0290   -3.3190 o         1 MOL     -0.658443
     46 H19         3.1200   -3.4930   -1.0330 hn        1 MOL      0.318105
     47 H20         3.8760   -4.6560   -3.7280 h1        1 MOL      0.094877
     48 H21         1.8080   -3.4500   -3.9680 hc        1 MOL      0.052952
     49 H22         3.1050   -2.6720   -4.8050 hc        1 MOL      0.052952
     50 N4          5.6100   -2.7710   -1.8870 n         1 MOL     -0.211462
     51 C17         6.9370   -2.2310   -1.6570 c3        1 MOL     -0.089732
     52 C18         7.1560   -0.7050   -1.8490 c         1 MOL      0.433914
     53 O9          8.3170   -0.3180   -1.9710 o         1 MOL     -0.612335
     54 H23         4.9930   -2.8460   -1.0950 hn        1 MOL      0.113036
     55 H24         7.6750   -2.6560   -2.3290 h1        1 MOL      0.077711
     56 H25         7.2340   -2.5040   -0.6390 h1        1 MOL      0.077711
     57 N5          6.0960    0.0620   -2.0180 n         1 MOL     -0.040902
     58 C19         6.1340    1.4480   -2.5510 c3        1 MOL     -0.202559
     59 C20         6.4300    2.5960   -1.4900 c         1 MOL      0.449701
     60 O10         6.6650    3.7420   -1.8200 o         1 MOL     -0.527314
     61 C21         4.8900    1.8530   -3.3240 c3        1 MOL     -0.156781
     62 C22         3.7550    1.9920   -2.3470 c         1 MOL      0.774359
     63 O11         3.8530    1.5900   -1.1210 o         1 MOL     -0.734389
     64 O12         2.6490    2.4040   -2.7390 o         1 MOL     -0.734389
     65 H26         5.1910   -0.3500   -1.8090 hn        1 MOL      0.168827
     66 H27         6.9610    1.4070   -3.2640 h1        1 MOL      0.128467
     67 H28         4.8030    1.0540   -4.0580 hc        1 MOL      0.070819
     68 H29         5.0870    2.7830   -3.8540 hc        1 MOL      0.070819
     69 N6          6.5140    2.1830   -0.2320 n         1 MOL     -0.236107
     70 C23         6.8350    3.0790    0.8960 c3        1 MOL     -0.113538
     71 C24         5.6970    4.0440    1.3160 c         1 MOL      0.459629
     72 O13         5.8780    5.0530    2.0860 o         1 MOL     -0.596835
     73 H30         6.3630    1.2020   -0.0600 hn        1 MOL      0.227841
     74 H31         7.7570    3.6270    0.6900 h1        1 MOL      0.074436
     75 H32         7.0110    2.4550    1.7700 h1        1 MOL      0.074436
     76 N7          4.4770    3.6700    0.9220 n         1 MOL     -0.099896
     77 C25         3.2380    4.3970    1.1360 c3        1 MOL     -0.046131
     78 C26         2.1750    3.3960    1.5300 c         1 MOL      0.390715
     79 O14         2.3530    2.1700    1.4180 o         1 MOL     -0.447685
     80 C27         2.8830    5.1610   -0.1310 c3        1 MOL     -0.204473
     81 C28         3.4840    6.5630   -0.0820 c3        1 MOL     -0.152728
     82 C29         2.8590    7.6500   -1.0150 c         1 MOL      0.587305
     83 N8          3.1450    7.5060   -2.2970 n         1 MOL     -0.782639
     84 O15         2.0990    8.5600   -0.6010 o         1 MOL     -0.564791
     85 H33         4.3690    2.8660    0.3190 hn        1 MOL      0.145926
     86 H34         3.3880    5.1150    1.9460 h1        1 MOL      0.090024
     87 H35         1.8100    5.3050   -0.2380 hc        1 MOL      0.129304
     88 H36         3.2920    4.6760   -1.0090 hc        1 MOL      0.129304
     89 H37         4.5670    6.5310   -0.1710 hc        1 MOL      0.063251
     90 H38         3.3220    6.9530    0.9240 hc        1 MOL      0.063251
     91 H39         3.8360    6.8290   -2.5910 hn        1 MOL      0.368380
     92 H40         2.6360    8.0520   -2.9710 hn        1 MOL      0.368380
     93 N9          1.1120    3.8650    2.1280 n         1 MOL     -0.485211
     94 C30        -0.0880    3.1170    2.4380 c3        1 MOL      0.061778
     95 C31        -1.2620    3.3880    1.4510 c         1 MOL      0.500569
     96 O16        -1.6740    4.5610    1.3050 o         1 MOL     -0.559241
     97 C32        -0.4780    3.3490    3.9060 c3        1 MOL      0.268395
     98 C33        -1.0580    4.7330    4.3060 c3        1 MOL     -0.236648
     99 C34        -1.5070    2.2960    4.3680 c3        1 MOL     -0.236648
    100 H41         1.0090    4.8600    1.9990 hn        1 MOL      0.311395
    101 H42         0.1700    2.0610    2.3370 h1        1 MOL      0.101761
    102 H43         0.3670    3.1640    4.5690 hc        1 MOL     -0.021741
    103 H44        -2.0360    4.8750    3.8590 hc        1 MOL      0.040339
    104 H45        -1.0560    4.8790    5.3830 hc        1 MOL      0.040339
    105 H46        -0.2980    5.4170    3.9280 hc        1 MOL      0.040339
    106 H47        -2.3450    2.1930    3.6760 hc        1 MOL      0.040339
    107 H48        -0.8860    1.3990    4.4310 hc        1 MOL      0.040339
    108 H49        -1.7330    2.4510    5.4220 hc        1 MOL      0.040339
    109 N10        -1.7900    2.2700    0.8850 n         1 MOL     -0.166882
    110 C35        -2.9840    2.3270    0.1060 c3        1 MOL      0.103730
    111 C36        -4.3660    2.0160    0.7570 c         1 MOL      0.275669
    112 O17        -4.4210    1.5500    1.8730 o         1 MOL     -0.326542
    113 C37        -2.7580    1.3020   -1.1070 c3        1 MOL     -0.349009
    114 C38        -3.7870    1.4140   -2.1800 c         1 MOL      0.697426
    115 N11        -3.8800    2.4030   -3.0530 n         1 MOL     -0.744328
    116 O18        -4.7070    0.5700   -2.2530 o         1 MOL     -0.459585
    117 H50        -1.2880    1.3970    0.9250 hn        1 MOL      0.101042
    118 H51        -3.0640    3.3480   -0.2630 h1        1 MOL      0.026253
    119 H52        -2.6230    0.2470   -0.8510 hc        1 MOL      0.138078
    120 H53        -1.7830    1.4530   -1.5470 hc        1 MOL      0.138078
    121 H54        -3.5000    3.2970   -2.7870 hn        1 MOL      0.346108
    122 H55        -4.6470    2.4250   -3.7140 hn        1 MOL      0.346108
    123 N12        -5.4840    2.3160    0.0360 n         1 MOL     -0.237147
    124 C39        -6.7760    1.8630    0.5810 c3        1 MOL      0.004022
    125 C40        -6.9090    0.3830    0.7530 c         1 MOL      0.465541
    126 O19        -7.6280   -0.0570    1.6450 o         1 MOL     -0.559302
    127 C41        -7.9500    2.3660   -0.2190 c3        1 MOL     -0.044002
    128 C42        -7.7080    2.3960   -1.6890 ca        1 MOL      0.002861
    129 C43        -8.0150    1.3030   -2.4760 ca        1 MOL     -0.122069
    130 C44        -7.1140    3.4990   -2.2700 ca        1 MOL     -0.122069
    131 C45        -7.8940    1.3110   -3.8910 ca        1 MOL     -0.313733
    132 C46        -6.9150    3.5430   -3.6320 ca        1 MOL     -0.313733
    133 C47        -7.3180    2.4890   -4.4460 ca        1 MOL      0.436095
    134 O20        -7.1610    2.6770   -5.8200 oh        1 MOL     -0.622851
    135 H56        -5.4040    2.6460   -0.9180 hn        1 MOL      0.124204
    136 H57        -6.9040    2.3140    1.5630 h1        1 MOL      0.087521
    137 H58        -8.1340    3.3920    0.0940 hc        1 MOL      0.037803
    138 H59        -8.8620    1.8320    0.0470 hc        1 MOL      0.037803
    139 H60        -8.4270    0.4220   -1.9970 ha        1 MOL      0.126279
    140 H61        -6.8870    4.3350   -1.6360 ha        1 MOL      0.126279
    141 H62        -8.2490    0.4470   -4.4270 ha        1 MOL      0.164330
    142 H63        -6.5280    4.4380   -4.1040 ha        1 MOL      0.164330
    143 H64        -7.4220    1.9390   -6.3850 ho        1 MOL      0.443234
    144 N13        -6.1910   -0.4730   -0.0560 n         1 MOL     -0.160523
    145 C48        -5.9670   -1.9410    0.1410 c3        1 MOL     -0.293776
    146 C49        -5.0790   -2.3910    1.3860 c         1 MOL      0.537372
    147 O21        -4.8250   -3.5850    1.5720 o         1 MOL     -0.547522
    148 C50        -5.5050   -2.6100   -1.2110 c3        1 MOL      0.292662
    149 C51        -6.4880   -2.8620   -2.3850 c3        1 MOL     -0.370623
    150 C52        -5.8770   -3.6190   -3.5570 c         1 MOL      0.693112
    151 O22        -5.8830   -4.9160   -3.5690 o         1 MOL     -0.722885
    152 O23        -5.2820   -2.9710   -4.4630 o         1 MOL     -0.722885
    153 H65        -5.7860   -0.0990   -0.9020 hn        1 MOL      0.184712
    154 H66        -6.9630   -2.3440    0.2830 h1        1 MOL      0.115922
    155 H67        -5.0450   -3.5640   -0.9450 hc        1 MOL     -0.006490
    156 H68        -4.7420   -1.9920   -1.6820 hc        1 MOL     -0.006490
    157 H69        -6.9360   -1.9420   -2.7660 hc        1 MOL      0.045213
    158 H70        -7.2330   -3.5540   -1.9940 hc        1 MOL      0.045213
    159 N14        -4.6110   -1.3950    2.1110 n         1 MOL     -0.256880
    160 C53        -3.5620   -1.5880    3.0960 c3        1 MOL     -0.032537
    161 C54        -3.8490   -0.8330    4.4020 c         1 MOL      0.374026
    162 O24        -3.4950   -1.3010    5.4930 o         1 MOL     -0.554987
    163 C55        -2.2370   -1.0230    2.5110 c3        1 MOL      0.141531
    164 C56        -1.7530   -1.6820    1.1850 c3        1 MOL     -0.162556
    165 C57        -0.3230   -1.1530    0.8690 c         1 MOL      0.910022
    166 O25        -0.1550   -0.0020    1.1290 o         1 MOL     -0.814555
    167 O26         0.6160   -1.8630    0.4110 o         1 MOL     -0.814555
    168 H71        -4.9410   -0.5030    1.7830 hn        1 MOL      0.057764
    169 H72        -3.4250   -2.6530    3.2670 h1        1 MOL      0.123338
    170 H73        -1.4920   -1.1260    3.2980 hc        1 MOL     -0.003521
    171 H74        -2.3030    0.0400    2.3000 hc        1 MOL     -0.003521
    172 H75        -2.4110   -1.5600    0.3210 hc        1 MOL      0.049941
    173 H76        -1.6120   -2.7310    1.4530 hc        1 MOL      0.049941
    174 N15        -4.5980    0.2610    4.3050 n         1 MOL     -0.097147
    175 C58        -5.0350    1.0900    5.4820 c3        1 MOL     -0.134046
    176 H77        -4.8170    2.1390    5.2870 h1        1 MOL      0.064900
    177 H78        -6.1060    0.9650    5.6380 h1        1 MOL      0.064900
    178 H79        -4.4980    0.7670    6.3730 h1        1 MOL      0.064900
    179 H80        -4.8010    0.5050    3.3450 hn        1 MOL      0.124058
    180 Ca1         2.4580   -0.0360    0.1760 Ca        1 MOL      1.695606
    181 O27         4.8530    0.4670    1.6050 oh        1 MOL     -0.898753
    182 H81         4.5140    0.5220    2.4980 ho        1 MOL      0.435611
    183 H82         5.5690   -0.1710    1.6500 ho        1 MOL      0.435611
    184 O28         2.1160   -0.2120    2.9640 oh        1 MOL     -0.898753
    185 H83         1.2570   -0.5560    3.2020 ho        1 MOL      0.435611
    186 H84         2.5810   -0.1380    3.7990 ho        1 MOL      0.435611
    187 O29         0.8830    0.9510   -1.7880 oh        1 MOL     -0.898753
    188 H85         1.4670    1.6290   -2.1320 ho        1 MOL      0.435611
    189 H86         1.0270    0.1850   -2.3440 ho        1 MOL      0.435611
@<TRIPOS>BOND
     1    1    2 1   
     2    1    4 1   
     3    1    5 1   
     4    1    6 1   
     5    2    3 2   
     6    2    7 1   
     7    7    8 1   
     8    7   15 1   
     9    8    9 1   
    10    8   11 1   
    11    8   16 1   
    12    9   10 2   
    13    9   19 1   
    14   11   12 1   
    15   11   17 1   
    16   11   18 1   
    17   12   13 1   
    18   12   14 1   
    19   19   20 1   
    20   19   27 1   
    21   20   21 1   
    22   20   23 1   
    23   20   28 1   
    24   21   22 2   
    25   21   38 1   
    26   23   24 1   
    27   23   25 1   
    28   23   29 1   
    29   24   26 1   
    30   24   30 1   
    31   24   31 1   
    32   25   32 1   
    33   25   33 1   
    34   25   34 1   
    35   26   35 1   
    36   26   36 1   
    37   26   37 1   
    38   38   39 1   
    39   38   46 1   
    40   39   40 1   
    41   39   42 1   
    42   39   47 1   
    43   40   41 2   
    44   40   50 1   
    45   42   43 1   
    46   42   48 1   
    47   42   49 1   
    48   43   44 1   
    49   43   45 1   
    50   50   51 1   
    51   50   54 1   
    52   51   52 1   
    53   51   55 1   
    54   51   56 1   
    55   52   53 2   
    56   52   57 1   
    57   57   58 1   
    58   57   65 1   
    59   58   59 1   
    60   58   61 1   
    61   58   66 1   
    62   59   60 2   
    63   59   69 1   
    64   61   62 1   
    65   61   67 1   
    66   61   68 1   
    67   62   63 1   
    68   62   64 1   
    69   69   70 1   
    70   69   73 1   
    71   70   71 1   
    72   70   74 1   
    73   70   75 1   
    74   71   72 2   
    75   71   76 1   
    76   76   77 1   
    77   76   85 1   
    78   77   78 1   
    79   77   80 1   
    80   77   86 1   
    81   78   79 2   
    82   78   93 1   
    83   80   81 1   
    84   80   87 1   
    85   80   88 1   
    86   81   82 1   
    87   81   89 1   
    88   81   90 1   
    89   82   83 1   
    90   82   84 2   
    91   83   91 1   
    92   83   92 1   
    93   93   94 1   
    94   93  100 1   
    95   94   95 1   
    96   94   97 1   
    97   94  101 1   
    98   95   96 2   
    99   95  109 1   
   100   97   98 1   
   101   97   99 1   
   102   97  102 1   
   103   98  103 1   
   104   98  104 1   
   105   98  105 1   
   106   99  106 1   
   107   99  107 1   
   108   99  108 1   
   109  109  110 1   
   110  109  117 1   
   111  110  111 1   
   112  110  113 1   
   113  110  118 1   
   114  111  112 2   
   115  111  123 1   
   116  113  114 1   
   117  113  119 1   
   118  113  120 1   
   119  114  115 1   
   120  114  116 2   
   121  115  121 1   
   122  115  122 1   
   123  123  124 1   
   124  123  135 1   
   125  124  125 1   
   126  124  127 1   
   127  124  136 1   
   128  125  126 2   
   129  125  144 1   
   130  127  128 1   
   131  127  137 1   
   132  127  138 1   
   133  128  129 ar  
   134  128  130 ar  
   135  129  131 ar  
   136  129  139 1   
   137  130  132 ar  
   138  130  140 1   
   139  131  133 ar  
   140  131  141 1   
   141  132  133 ar  
   142  132  142 1   
   143  133  134 1   
   144  134  143 1   
   145  144  145 1   
   146  144  153 1   
   147  145  146 1   
   148  145  148 1   
   149  145  154 1   
   150  146  147 2   
   151  146  159 1   
   152  148  149 1   
   153  148  155 1   
   154  148  156 1   
   155  149  150 1   
   156  149  157 1   
   157  149  158 1   
   158  150  151 1   
   159  150  152 1   
   160  159  160 1   
   161  159  168 1   
   162  160  161 1   
   163  160  163 1   
   164  160  169 1   
   165  161  162 2   
   166  161  174 1   
   167  163  164 1   
   168  163  170 1   
   169  163  171 1   
   170  164  165 1   
   171  164  172 1   
   172  164  173 1   
   173  165  166 1   
   174  165  167 1   
   175  174  175 1   
   176  174  179 1   
   177  175  176 1   
   178  175  177 1   
   179  175  178 1   
   180  181  182 1   
   181  181  183 1   
   182  184  185 1   
   183  184  186 1   
   184  187  188 1   
   185  187  189 1   
@<TRIPOS>SUBSTRUCTURE
     1 MOL         1 TEMP              0 ****  ****    0 ROOT
