@<TRIPOS>MOLECULE
MOL
  186   183     1     0     0
SMALL
resp


@<TRIPOS>ATOM
      1 C1          0.0550    3.1210   -5.6610 c3        1 MOL     -0.120306
      2 C2          0.2320    2.5440   -4.2260 c         1 MOL      0.667488
      3 O1         -0.7030    2.5480   -3.4090 o         1 MOL     -0.588154
      4 H1         -0.4740    2.3970   -6.2810 hc        1 MOL      0.034094
      5 H2         -0.5180    4.0460   -5.6140 hc        1 MOL      0.034094
      6 H3          1.0350    3.3220   -6.0960 hc        1 MOL      0.034094
      7 N1          1.4240    2.0590   -3.8360 n         1 MOL     -0.615636
      8 C3          1.8300    1.7100   -2.5200 c3        1 MOL      0.002692
      9 C4          2.0830    3.0350   -1.7220 c         1 MOL      0.476679
     10 O2          2.8580    3.9280   -2.0720 o         1 MOL     -0.570813
     11 C5          3.1820    0.9640   -2.5760 c3        1 MOL     -0.340673
     12 C6          3.7960    0.6130   -1.2020 c         1 MOL      0.799023
     13 O3          4.9380    0.0060   -1.2740 o         1 MOL     -0.672650
     14 O4          3.2130    0.7730   -0.1290 o         1 MOL     -0.672650
     15 H4          2.1740    1.8870   -4.4880 hn        1 MOL      0.365138
     16 H5          1.0800    1.1840   -1.9330 h1        1 MOL      0.106959
     17 H6          3.8590    1.6250   -3.1110 hc        1 MOL      0.096654
     18 H7          3.0280    0.0840   -3.1980 hc        1 MOL      0.096654
     19 N2          1.3510    3.2610   -0.6130 n         1 MOL     -0.159073
     20 C7          1.3990    4.5190    0.1140 c3        1 MOL     -0.014654
     21 C8          2.3140    4.5260    1.3560 c         1 MOL      0.288133
     22 O5          2.8320    5.5470    1.7890 o         1 MOL     -0.510916
     23 C9         -0.0100    4.7930    0.5530 c3        1 MOL     -0.018634
     24 C10        -1.0720    4.8380   -0.5850 c3        1 MOL     -0.060285
     25 C11        -0.8860    6.1570   -1.4430 c3        1 MOL     -0.083779
     26 C12        -0.3000    5.7970   -2.8050 c3        1 MOL      0.151626
     27 N3         -0.0170    6.8870   -3.7230 n4        1 MOL     -0.452323
     28 H8          0.9450    2.4380   -0.2010 hn        1 MOL      0.150312
     29 H9          1.7910    5.3490   -0.4720 h1        1 MOL      0.080099
     30 H10         0.0170    5.8160    0.9070 hc        1 MOL      0.035993
     31 H11        -0.4880    4.1370    1.2840 hc        1 MOL      0.035993
     32 H12        -1.9580    5.0370    0.0080 hc        1 MOL      0.071665
     33 H13        -1.2360    3.9470   -1.1870 hc        1 MOL      0.071665
     34 H14        -0.2770    6.9470   -0.9970 hc        1 MOL      0.029780
     35 H15        -1.8950    6.5750   -1.4930 hc        1 MOL      0.029780
     36 H16        -0.9760    5.0750   -3.2620 hx        1 MOL      0.053069
     37 H17         0.6010    5.2070   -2.5960 hx        1 MOL      0.053069
     38 H18         0.8670    7.2970   -3.4470 hn        1 MOL      0.340022
     39 H19         0.0800    6.5830   -4.6830 hn        1 MOL      0.340022
     40 H20        -0.6730    7.6430   -3.5770 hn        1 MOL      0.340022
     41 N4          2.5540    3.3580    1.9730 n         1 MOL      0.001525
     42 C13         3.5300    3.1740    3.1040 c3        1 MOL     -0.356709
     43 C14         4.9850    3.0740    2.5750 c         1 MOL      0.635055
     44 O6          5.9240    3.4560    3.2310 o         1 MOL     -0.543392
     45 C15         3.1520    1.9980    3.9920 c3        1 MOL      0.243809
     46 C16         1.7440    1.4800    4.0700 c         1 MOL      0.621357
     47 O7          1.5190    0.3470    3.5300 o         1 MOL     -0.709922
     48 O8          0.8750    2.1670    4.5420 o         1 MOL     -0.709922
     49 H21         2.0130    2.5660    1.6510 hn        1 MOL      0.194242
     50 H22         3.5590    4.0360    3.7690 h1        1 MOL      0.133781
     51 H23         3.5330    2.1700    4.9980 hc        1 MOL     -0.055418
     52 H24         3.6530    1.0970    3.6130 hc        1 MOL     -0.055418
     53 N5          5.1490    2.6990    1.3280 n         1 MOL     -0.284956
     54 C17         6.4780    2.5560    0.7380 c3        1 MOL     -0.129265
     55 C18         7.2050    1.2790    1.2180 c         1 MOL      0.396163
     56 O9          8.1870    1.3370    1.9830 o         1 MOL     -0.531138
     57 H25         4.3430    2.2540    0.9330 hn        1 MOL      0.190529
     58 H26         7.0690    3.4760    0.7850 h1        1 MOL      0.099971
     59 H27         6.3560    2.2670   -0.3120 h1        1 MOL      0.099971
     60 N6          6.6410    0.0720    1.0630 n         1 MOL     -0.115703
     61 C19         7.1470   -1.2530    1.4090 c3        1 MOL     -0.018446
     62 C20         7.3780   -2.2650    0.2890 c         1 MOL      0.451576
     63 O10         8.0630   -3.2770    0.4820 o         1 MOL     -0.536579
     64 C21         6.2990   -1.7960    2.5200 c3        1 MOL     -0.174267
     65 C22         4.8130   -1.8830    2.2840 c         1 MOL      0.757267
     66 O11         4.3390   -2.1030    1.1400 o         1 MOL     -0.783735
     67 O12         3.9940   -1.6110    3.1790 o         1 MOL     -0.783735
     68 H28         5.8110    0.0790    0.4870 hn        1 MOL      0.072256
     69 H29         8.1090   -1.0680    1.8860 h1        1 MOL      0.078554
     70 H30         6.4540   -1.1140    3.3580 hc        1 MOL      0.072275
     71 H31         6.7680   -2.7340    2.8130 hc        1 MOL      0.072275
     72 N7          6.8450   -1.9600   -0.8830 n         1 MOL     -0.344166
     73 C23         6.8500   -2.8810   -1.9520 c3        1 MOL      0.141928
     74 C24         5.5120   -3.6970   -2.0830 c         1 MOL      0.532871
     75 O13         5.6230   -4.8280   -2.5640 o         1 MOL     -0.590065
     76 H32         6.2380   -1.1450   -0.8580 hn        1 MOL      0.220703
     77 H33         7.6590   -3.6100   -1.9430 h1        1 MOL      0.024868
     78 H34         6.9240   -2.3910   -2.9240 h1        1 MOL      0.024868
     79 N8          4.3010   -3.3330   -1.5760 n         1 MOL     -0.327637
     80 C25         3.0190   -4.0220   -1.7890 c3        1 MOL     -0.097197
     81 C26         1.7630   -3.0400   -1.6950 c         1 MOL      0.570190
     82 O14         1.6940   -2.1240   -0.9000 o         1 MOL     -0.556058
     83 C27         2.8010   -5.2620   -0.8160 c3        1 MOL      0.415338
     84 C28         3.7550   -6.4500   -0.8330 c3        1 MOL     -0.378794
     85 O15         2.7120   -4.7970    0.5420 oh        1 MOL     -0.686951
     86 H35         4.3030   -2.5190   -0.9640 hn        1 MOL      0.203151
     87 H36         3.0360   -4.4250   -2.7940 h1        1 MOL      0.065947
     88 H37         1.8140   -5.6190   -1.0950 h1        1 MOL      0.005136
     89 H38         3.5920   -4.8130    0.9210 ho        1 MOL      0.442047
     90 H39         3.6980   -6.9590   -1.7930 hc        1 MOL      0.110448
     91 H40         4.7170   -6.1890   -0.3820 hc        1 MOL      0.110448
     92 H41         3.3270   -7.2040   -0.1780 hc        1 MOL      0.110448
     93 N9          0.7050   -3.3670   -2.4160 n         1 MOL     -0.420975
     94 C29        -0.5020   -2.5430   -2.3470 c3        1 MOL      0.067499
     95 C30        -1.7050   -3.1450   -1.6660 c         1 MOL      0.549351
     96 O16        -1.8360   -4.3450   -1.7140 o         1 MOL     -0.560958
     97 C31        -0.8500   -2.0950   -3.7870 c3        1 MOL      0.053056
     98 C32         0.3580   -1.6270   -4.6440 c3        1 MOL      0.245720
     99 C33        -1.9320   -0.9690   -3.8070 c3        1 MOL     -0.633949
    100 C34         0.1940   -1.5510   -6.1780 c3        1 MOL     -0.105675
    101 H42         0.6170   -4.3120   -2.7520 hn        1 MOL      0.258839
    102 H43        -0.2810   -1.6180   -1.8250 h1        1 MOL      0.097161
    103 H44        -1.2350   -2.9950   -4.2840 hc        1 MOL      0.005429
    104 H45         1.1700   -2.3440   -4.4860 hc        1 MOL     -0.057569
    105 H46         0.7700   -0.6590   -4.3590 hc        1 MOL     -0.057569
    106 H47        -2.2440   -0.6640   -4.8010 hc        1 MOL      0.155448
    107 H48        -2.7920   -1.2750   -3.2020 hc        1 MOL      0.155448
    108 H49        -1.4850   -0.1020   -3.3100 hc        1 MOL      0.155448
    109 H50         0.3630   -2.5240   -6.6300 hc        1 MOL      0.018790
    110 H51        -0.8260   -1.2870   -6.4750 hc        1 MOL      0.018790
    111 H52         0.9700   -0.9830   -6.6960 hc        1 MOL      0.018790
    112 N10        -2.6320   -2.4380   -0.9690 n         1 MOL     -0.321564
    113 C35        -3.7420   -2.9370   -0.2080 c3        1 MOL      0.004890
    114 C36        -5.0360   -2.0690   -0.4480 c         1 MOL      0.305203
    115 O17        -4.9460   -1.0120   -1.0880 o         1 MOL     -0.359422
    116 C37        -3.5230   -2.9580    1.3030 c3        1 MOL      0.331094
    117 C38        -2.7030   -4.0930    1.8720 c3        1 MOL     -0.649626
    118 O18        -3.0500   -1.6970    1.7560 oh        1 MOL     -0.645044
    119 H53        -2.3960   -1.4670   -0.7880 hn        1 MOL      0.446402
    120 H54        -3.9880   -3.9110   -0.6270 h1        1 MOL      0.079947
    121 H55        -4.4980   -2.9810    1.7760 h1        1 MOL      0.027809
    122 H56        -2.1090   -1.6920    1.5340 ho        1 MOL      0.396227
    123 H57        -2.7650   -4.1070    2.9600 hc        1 MOL      0.172024
    124 H58        -3.1930   -4.9780    1.4570 hc        1 MOL      0.172024
    125 H59        -1.7170   -3.9610    1.4230 hc        1 MOL      0.172024
    126 N11        -6.2100   -2.5640   -0.0650 n         1 MOL     -0.236505
    127 C39        -7.5340   -1.9780   -0.5030 c3        1 MOL     -0.010029
    128 C40        -7.6870   -0.5760    0.0850 c         1 MOL      0.314413
    129 O19        -8.4180    0.1970   -0.5400 o         1 MOL     -0.474828
    130 C41        -8.6990   -2.8510    0.1200 c3        1 MOL      0.550820
    131 C42        -9.9510   -2.8970   -0.7360 c3        1 MOL     -0.438268
    132 O20        -8.4340   -4.1760    0.1810 oh        1 MOL     -0.632548
    133 H60        -6.2260   -3.3310    0.5880 hn        1 MOL      0.151194
    134 H61        -7.5840   -1.9340   -1.5910 h1        1 MOL      0.127971
    135 H62        -8.9390   -2.5000    1.1270 h1        1 MOL     -0.078616
    136 H63        -9.1140   -4.4290    0.8060 ho        1 MOL      0.390646
    137 H64       -10.5450   -3.7310   -0.3830 hc        1 MOL      0.109875
    138 H65       -10.4550   -1.9490   -0.5560 hc        1 MOL      0.109875
    139 H66        -9.6590   -2.9090   -1.7870 hc        1 MOL      0.109875
    140 N12        -7.0650   -0.2320    1.2360 n         1 MOL     -0.193333
    141 C43        -7.0110    1.1160    1.8560 c3        1 MOL     -0.071514
    142 C44        -5.9400    2.0230    1.2790 c         1 MOL      0.368062
    143 O21        -6.0210    3.2520    1.3360 o         1 MOL     -0.497729
    144 C45        -6.7060    1.0260    3.3920 c3        1 MOL     -0.037741
    145 C46        -5.3700    0.3450    3.7020 c3        1 MOL     -0.026820
    146 C47        -4.9940    0.2600    5.1420 c3        1 MOL      0.045393
    147 C48        -3.8210   -0.7660    5.4460 c3        1 MOL     -0.118894
    148 N13        -3.8390   -1.2940    6.7810 n4        1 MOL     -0.141300
    149 H67        -6.6970   -0.9990    1.7840 hn        1 MOL      0.142746
    150 H68        -7.9140    1.7200    1.7820 h1        1 MOL      0.135645
    151 H69        -7.5510    0.4660    3.7950 hc        1 MOL      0.030717
    152 H70        -6.8360    1.9900    3.8880 hc        1 MOL      0.030717
    153 H71        -4.6280    0.9330    3.1690 hc        1 MOL      0.017301
    154 H72        -5.3640   -0.6920    3.3700 hc        1 MOL      0.017301
    155 H73        -5.8150   -0.0840    5.7730 hc        1 MOL      0.027990
    156 H74        -4.8010    1.2800    5.4550 hc        1 MOL      0.027990
    157 H75        -2.8240   -0.3540    5.2680 hx        1 MOL      0.130664
    158 H76        -3.9810   -1.5480    4.6990 hx        1 MOL      0.130664
    159 H77        -3.0110   -1.8440    6.9490 hn        1 MOL      0.268878
    160 H78        -3.8930   -0.6860    7.5890 hn        1 MOL      0.268878
    161 H79        -4.5380   -2.0100    6.9080 hn        1 MOL      0.268878
    162 N14        -4.9150    1.4140    0.5800 n         1 MOL      0.081635
    163 C49        -3.9440    2.1600   -0.2170 c3        1 MOL     -0.240502
    164 C50        -4.5850    2.4650   -1.5490 c         1 MOL      0.588946
    165 O22        -4.4930    3.6240   -1.9560 o         1 MOL     -0.554543
    166 C51        -2.6860    1.3480   -0.3890 c3        1 MOL      0.021387
    167 C52        -1.8350    1.2870    0.8960 c3        1 MOL     -0.138020
    168 C53        -0.5750    0.4330    0.7530 c         1 MOL      0.723897
    169 O23         0.5980    0.9310    0.8490 o         1 MOL     -0.787354
    170 O24        -0.6650   -0.8180    0.5960 o         1 MOL     -0.787354
    171 H80        -4.9840    0.4160    0.4360 hn        1 MOL      0.054705
    172 H81        -3.7070    3.1330    0.2380 h1        1 MOL      0.112502
    173 H82        -2.1300    1.7540   -1.2270 hc        1 MOL     -0.022035
    174 H83        -2.8080    0.3380   -0.7910 hc        1 MOL     -0.022035
    175 H84        -2.5330    0.8410    1.6120 hc        1 MOL      0.062731
    176 H85        -1.5020    2.2510    1.2890 hc        1 MOL      0.062731
    177 N15        -5.3500    1.5410   -2.2110 n         1 MOL     -0.238888
    178 C54        -6.1990    1.8220   -3.3420 c3        1 MOL     -0.452938
    179 H86        -6.5090    0.8850   -3.8050 h1        1 MOL      0.161331
    180 H87        -7.0810    2.3700   -3.0080 h1        1 MOL      0.161331
    181 H88        -5.6510    2.4220   -4.0690 h1        1 MOL      0.161331
    182 H89        -5.3670    0.6410   -1.7460 hn        1 MOL      0.187601
    183 Ca1         2.0920   -1.0220    1.3610 Ca        1 MOL      1.766093
    184 O25         1.0910   -3.4220    2.2000 oh        1 MOL     -0.905876
    185 H90         0.8670   -3.9260    2.9840 ho        1 MOL      0.428045
    186 H91         1.3780   -4.0720    1.5610 ho        1 MOL      0.428045
@<TRIPOS>BOND
     1    1    2 1   
     2    1    4 1   
     3    1    5 1   
     4    1    6 1   
     5    2    3 2   
     6    2    7 1   
     7    7    8 1   
     8    7   15 1   
     9    8    9 1   
    10    8   11 1   
    11    8   16 1   
    12    9   10 2   
    13    9   19 1   
    14   11   12 1   
    15   11   17 1   
    16   11   18 1   
    17   12   13 1   
    18   12   14 1   
    19   19   20 1   
    20   19   28 1   
    21   20   21 1   
    22   20   23 1   
    23   20   29 1   
    24   21   22 2   
    25   21   41 1   
    26   23   24 1   
    27   23   30 1   
    28   23   31 1   
    29   24   25 1   
    30   24   32 1   
    31   24   33 1   
    32   25   26 1   
    33   25   34 1   
    34   25   35 1   
    35   26   27 1   
    36   26   36 1   
    37   26   37 1   
    38   27   38 1   
    39   27   39 1   
    40   27   40 1   
    41   41   42 1   
    42   41   49 1   
    43   42   43 1   
    44   42   45 1   
    45   42   50 1   
    46   43   44 2   
    47   43   53 1   
    48   45   46 1   
    49   45   51 1   
    50   45   52 1   
    51   46   47 1   
    52   46   48 1   
    53   53   54 1   
    54   53   57 1   
    55   54   55 1   
    56   54   58 1   
    57   54   59 1   
    58   55   56 2   
    59   55   60 1   
    60   60   61 1   
    61   60   68 1   
    62   61   62 1   
    63   61   64 1   
    64   61   69 1   
    65   62   63 2   
    66   62   72 1   
    67   64   65 1   
    68   64   70 1   
    69   64   71 1   
    70   65   66 1   
    71   65   67 1   
    72   72   73 1   
    73   72   76 1   
    74   73   74 1   
    75   73   77 1   
    76   73   78 1   
    77   74   75 2   
    78   74   79 1   
    79   79   80 1   
    80   79   86 1   
    81   80   81 1   
    82   80   83 1   
    83   80   87 1   
    84   81   82 2   
    85   81   93 1   
    86   83   84 1   
    87   83   85 1   
    88   83   88 1   
    89   84   90 1   
    90   84   91 1   
    91   84   92 1   
    92   85   89 1   
    93   93   94 1   
    94   93  101 1   
    95   94   95 1   
    96   94   97 1   
    97   94  102 1   
    98   95   96 2   
    99   95  112 1   
   100   97   98 1   
   101   97   99 1   
   102   97  103 1   
   103   98  100 1   
   104   98  104 1   
   105   98  105 1   
   106   99  106 1   
   107   99  107 1   
   108   99  108 1   
   109  100  109 1   
   110  100  110 1   
   111  100  111 1   
   112  112  113 1   
   113  112  119 1   
   114  113  114 1   
   115  113  116 1   
   116  113  120 1   
   117  114  115 2   
   118  114  126 1   
   119  116  117 1   
   120  116  118 1   
   121  116  121 1   
   122  117  123 1   
   123  117  124 1   
   124  117  125 1   
   125  118  122 1   
   126  126  127 1   
   127  126  133 1   
   128  127  128 1   
   129  127  130 1   
   130  127  134 1   
   131  128  129 2   
   132  128  140 1   
   133  130  131 1   
   134  130  132 1   
   135  130  135 1   
   136  131  137 1   
   137  131  138 1   
   138  131  139 1   
   139  132  136 1   
   140  140  141 1   
   141  140  149 1   
   142  141  142 1   
   143  141  144 1   
   144  141  150 1   
   145  142  143 2   
   146  142  162 1   
   147  144  145 1   
   148  144  151 1   
   149  144  152 1   
   150  145  146 1   
   151  145  153 1   
   152  145  154 1   
   153  146  147 1   
   154  146  155 1   
   155  146  156 1   
   156  147  148 1   
   157  147  157 1   
   158  147  158 1   
   159  148  159 1   
   160  148  160 1   
   161  148  161 1   
   162  162  163 1   
   163  162  171 1   
   164  163  164 1   
   165  163  166 1   
   166  163  172 1   
   167  164  165 2   
   168  164  177 1   
   169  166  167 1   
   170  166  173 1   
   171  166  174 1   
   172  167  168 1   
   173  167  175 1   
   174  167  176 1   
   175  168  169 1   
   176  168  170 1   
   177  177  178 1   
   178  177  182 1   
   179  178  179 1   
   180  178  180 1   
   181  178  181 1   
   182  184  185 1   
   183  184  186 1   
@<TRIPOS>SUBSTRUCTURE
     1 MOL         1 TEMP              0 ****  ****    0 ROOT
