@<TRIPOS>MOLECULE
MOL
  175   173     1     0     0
SMALL
resp


@<TRIPOS>ATOM
      1 C1         -0.0750   -4.6370    5.3880 c3        1 MOL     -0.345950
      2 C2          0.4140   -4.3840    3.9510 c         1 MOL      0.681468
      3 O1         -0.2690   -4.6220    2.9600 o         1 MOL     -0.552141
      4 H1          0.7720   -4.5950    6.0720 hc        1 MOL      0.084796
      5 H2         -0.8020   -3.8730    5.6650 hc        1 MOL      0.084796
      6 H3         -0.5400   -5.6220    5.4470 hc        1 MOL      0.084796
      7 N1          1.6460   -3.9160    3.7650 n         1 MOL     -0.556610
      8 C3          2.2040   -3.5520    2.4510 c3        1 MOL      0.020778
      9 C4          2.3360   -4.7500    1.4790 c         1 MOL      0.730089
     10 O2          2.5880   -5.9050    1.8550 o         1 MOL     -0.592562
     11 C5          3.4810   -2.7350    2.7190 c3        1 MOL     -0.120660
     12 C6          4.1970   -2.4720    1.4010 c         1 MOL      0.631742
     13 O3          5.3810   -2.9240    1.2930 o         1 MOL     -0.628298
     14 O4          3.5070   -1.9030    0.4970 o         1 MOL     -0.628298
     15 H4          2.2790   -3.8280    4.5470 hn        1 MOL      0.308640
     16 H5          1.5500   -2.8180    1.9840 h1        1 MOL      0.060506
     17 H6          4.2120   -3.1530    3.4100 hc        1 MOL      0.003058
     18 H7          3.1490   -1.7990    3.1650 hc        1 MOL      0.003058
     19 N2          2.2630   -4.3990    0.1910 n         1 MOL     -0.693153
     20 C7          2.2700   -5.1660   -1.0740 c3        1 MOL      0.380853
     21 C8          3.2380   -4.5720   -2.1360 c         1 MOL      0.392243
     22 O5          3.1410   -5.0370   -3.2910 o         1 MOL     -0.571206
     23 C9          0.8600   -5.4180   -1.4810 c3        1 MOL     -0.139229
     24 H8          2.0870   -3.4240   -0.0330 hn        1 MOL      0.340761
     25 H9          2.5970   -6.1790   -0.8210 h1        1 MOL     -0.010660
     26 H10         0.3340   -5.8900   -0.6480 hc        1 MOL      0.028453
     27 H11         0.3030   -4.5010   -1.6560 hc        1 MOL      0.028453
     28 H12         0.8360   -6.0900   -2.3420 hc        1 MOL      0.028453
     29 N3          4.0500   -3.5710   -1.8780 n         1 MOL     -0.299083
     30 C10         4.9970   -3.0830   -2.9730 c3        1 MOL      0.074815
     31 C11         6.3760   -2.5570   -2.4170 c         1 MOL      0.389539
     32 O6          7.3860   -2.5850   -3.0850 o         1 MOL     -0.552630
     33 C12         4.1870   -2.0480   -3.8680 c3        1 MOL     -0.220604
     34 C13         3.4690   -1.0750   -2.9340 c         1 MOL      0.707165
     35 O7          4.1050   -0.4990   -2.0280 o         1 MOL     -0.706617
     36 O8          2.2320   -0.9140   -2.9410 o         1 MOL     -0.706617
     37 H13         3.9340   -3.0700   -1.0130 hn        1 MOL      0.165039
     38 H14         5.4380   -3.8920   -3.5630 h1        1 MOL      0.083871
     39 H15         3.4480   -2.6310   -4.4300 hc        1 MOL      0.073297
     40 H16         4.7590   -1.5580   -4.6510 hc        1 MOL      0.073297
     41 N4          6.4600   -2.0950   -1.1630 n         1 MOL     -0.171684
     42 C14         7.5600   -1.3700   -0.5410 c3        1 MOL     -0.080947
     43 C15         7.6130    0.0340   -0.9820 c         1 MOL      0.510065
     44 O9          8.5900    0.6520   -0.8500 o         1 MOL     -0.594821
     45 H17         5.5950   -2.1220   -0.6390 hn        1 MOL      0.143347
     46 H18         8.4780   -1.9330   -0.7190 h1        1 MOL      0.082711
     47 H19         7.4610   -1.4300    0.5460 h1        1 MOL      0.082711
     48 N5          6.4550    0.6570   -1.4030 n         1 MOL     -0.165060
     49 C16         6.3000    2.0510   -1.8160 c3        1 MOL     -0.015402
     50 C17         6.2940    3.0540   -0.5870 c         1 MOL      0.452127
     51 O10         6.4900    4.2090   -0.9490 o         1 MOL     -0.516596
     52 C18         5.2160    2.2140   -2.9110 c3        1 MOL     -0.210705
     53 C19         3.8420    2.4410   -2.2740 c         1 MOL      0.653196
     54 N6          2.7840    2.7230   -3.0600 n         1 MOL     -0.702134
     55 O11         3.6550    2.3760   -1.0370 o         1 MOL     -0.508151
     56 H20         5.5970    0.1610   -1.2470 hn        1 MOL      0.081282
     57 H21         7.2810    2.3330   -2.1980 h1        1 MOL      0.094670
     58 H22         5.2800    1.3740   -3.5950 hc        1 MOL      0.076986
     59 H23         5.5540    3.1210   -3.4170 hc        1 MOL      0.076986
     60 H24         2.9380    2.6900   -4.0480 hn        1 MOL      0.335213
     61 H25         1.8320    2.5860   -2.7460 hn        1 MOL      0.335213
     62 N7          6.1630    2.6020    0.6820 n         1 MOL     -0.229400
     63 C20         6.2050    3.5120    1.8690 c3        1 MOL     -0.310370
     64 C21         4.9870    4.3390    1.9760 c         1 MOL      0.554778
     65 O12         4.9830    5.4360    2.6350 o         1 MOL     -0.601289
     66 H26         6.0940    1.5960    0.7130 hn        1 MOL      0.264383
     67 H27         7.0360    4.2150    1.7560 h1        1 MOL      0.144070
     68 H28         6.2880    2.9000    2.7610 h1        1 MOL      0.144070
     69 N8          3.8840    3.9380    1.4110 n         1 MOL     -0.086777
     70 C22         2.4780    4.4990    1.4810 c3        1 MOL     -0.245972
     71 C23         1.4330    3.4310    1.4110 c         1 MOL      0.611365
     72 O13         1.6340    2.3500    0.7910 o         1 MOL     -0.622676
     73 C24         2.1270    5.6050    0.4080 c3        1 MOL      0.615107
     74 C25         2.6820    7.0210    0.8200 c3        1 MOL     -0.434114
     75 O14         2.6500    5.3700   -0.8610 oh        1 MOL     -0.648981
     76 H29         4.0130    3.1400    0.8060 hn        1 MOL     -0.020107
     77 H30         2.3060    4.9910    2.4350 h1        1 MOL      0.092803
     78 H31         1.0450    5.6780    0.4160 h1        1 MOL     -0.060818
     79 H32         2.9990    4.4810   -0.8040 ho        1 MOL      0.408545
     80 H33         2.2890    7.7360    0.1000 hc        1 MOL      0.099087
     81 H34         2.3120    7.3100    1.8080 hc        1 MOL      0.099087
     82 H35         3.7620    6.9030    0.8260 hc        1 MOL      0.099087
     83 N9          0.2430    3.6750    2.0210 n         1 MOL     -0.532850
     84 C26        -0.9490    2.7650    2.0040 c3        1 MOL      0.209469
     85 C27        -1.7550    2.9590    0.7800 c         1 MOL      0.480413
     86 O15        -2.2590    4.0560    0.5080 o         1 MOL     -0.592702
     87 C28        -1.7000    2.7900    3.3640 c3        1 MOL     -0.008666
     88 C29        -1.2600    1.6110    4.2590 c3        1 MOL      0.049284
     89 C30        -3.2600    2.7620    3.2930 c3        1 MOL     -0.192749
     90 C31        -1.8150    1.4480    5.6970 c3        1 MOL     -0.063824
     91 H36         0.1090    4.5870    2.4360 hn        1 MOL      0.284856
     92 H37        -0.5150    1.7590    1.9350 h1        1 MOL     -0.090554
     93 H38        -1.4400    3.7140    3.8680 hc        1 MOL      0.022448
     94 H39        -0.1630    1.6150    4.3080 hc        1 MOL     -0.014450
     95 H40        -1.5420    0.6440    3.8360 hc        1 MOL     -0.014450
     96 H41        -3.6260    3.5000    2.5860 hc        1 MOL      0.043867
     97 H42        -3.6430    1.8460    2.8400 hc        1 MOL      0.043867
     98 H43        -3.6660    2.9510    4.2920 hc        1 MOL      0.043867
     99 H44        -1.5710    2.3370    6.2730 hc        1 MOL      0.009592
    100 H45        -2.8920    1.2590    5.6650 hc        1 MOL      0.009592
    101 H46        -1.3100    0.6680    6.2570 hc        1 MOL      0.009592
    102 N10        -1.8910    1.8980   -0.0190 n         1 MOL     -0.168189
    103 C32        -2.7220    1.8800   -1.2210 c3        1 MOL      0.029521
    104 C33        -4.2000    1.5480   -0.8120 c         1 MOL      0.420489
    105 O16        -4.4740    0.9960    0.2610 o         1 MOL     -0.360469
    106 C34        -2.1000    0.9660   -2.2540 c3        1 MOL     -0.169636
    107 C35        -0.6600    1.3960   -2.5040 c         1 MOL      0.634860
    108 O17         0.2220    1.0430   -1.6970 o         1 MOL     -0.654588
    109 O18        -0.5010    2.0450   -3.5900 o         1 MOL     -0.654588
    110 H47        -1.2900    1.1250    0.2120 hn        1 MOL      0.222822
    111 H48        -2.7520    2.8270   -1.7530 h1        1 MOL      0.058975
    112 H49        -2.6870    0.9720   -3.1710 hc        1 MOL      0.051085
    113 H50        -2.1490   -0.0760   -1.9170 hc        1 MOL      0.051085
    114 N11        -5.1710    1.6350   -1.7530 n         1 MOL     -0.694625
    115 C36        -6.6020    1.4020   -1.4080 c3        1 MOL      0.560194
    116 C37        -6.8350   -0.0460   -1.0730 c         1 MOL      0.251562
    117 O19        -7.4900   -0.2950   -0.0300 o         1 MOL     -0.505214
    118 C38        -7.4700    2.0540   -2.4480 c3        1 MOL     -0.280549
    119 C39        -8.9640    1.8280   -2.2410 ca        1 MOL      0.237460
    120 C40        -9.5260    2.3300   -1.0950 ca        1 MOL     -0.264278
    121 C41        -9.8050    1.0770   -3.1440 ca        1 MOL     -0.264278
    122 C42       -10.8920    2.1290   -0.7950 ca        1 MOL     -0.059549
    123 C43       -11.2010    0.9990   -2.9240 ca        1 MOL     -0.059549
    124 C44       -11.7160    1.4990   -1.7140 ca        1 MOL     -0.154468
    125 H51        -4.9360    1.9980   -2.6690 hn        1 MOL      0.344302
    126 H52        -6.8110    1.8800   -0.4470 h1        1 MOL     -0.011639
    127 H53        -7.1680    1.4890   -3.3240 hc        1 MOL      0.058261
    128 H54        -7.3300    3.1340   -2.4710 hc        1 MOL      0.058261
    129 H55        -9.0240    2.8810   -0.3030 ha        1 MOL      0.142122
    130 H56        -9.2900    0.4980   -3.9070 ha        1 MOL      0.142122
    131 H57       -11.2920    2.4520    0.1630 ha        1 MOL      0.102778
    132 H58       -11.8460    0.4590   -3.5950 ha        1 MOL      0.102778
    133 H59       -12.7510    1.2640   -1.5120 ha        1 MOL      0.103629
    134 N12        -6.2640   -0.9950   -1.7710 n         1 MOL     -0.008128
    135 C45        -6.3860   -2.4080   -1.3070 c3        1 MOL      0.012465
    136 C46        -5.7710   -2.7440    0.0500 c         1 MOL      0.430172
    137 O20        -6.4010   -3.5410    0.7240 o         1 MOL     -0.487826
    138 C47        -5.8240   -3.2330   -2.4140 c3        1 MOL     -0.242985
    139 C48        -4.9700   -2.2580   -3.2050 c3        1 MOL      0.040070
    140 C49        -5.7190   -1.0070   -3.1030 c3        1 MOL     -0.057112
    141 H60        -7.4170   -2.6470   -1.0380 h1        1 MOL      0.062160
    142 H61        -5.2610   -4.1470   -2.2040 hc        1 MOL      0.091680
    143 H62        -6.6250   -3.5390   -3.0860 hc        1 MOL      0.091680
    144 H63        -4.0560   -1.9810   -2.6760 hc        1 MOL      0.029815
    145 H64        -4.7630   -2.5650   -4.2340 hc        1 MOL      0.029815
    146 H65        -4.9450   -0.2600   -3.2540 h1        1 MOL      0.016211
    147 H66        -6.5410   -0.9930   -3.8190 h1        1 MOL      0.016211
    148 N13        -4.6400   -2.0350    0.4740 n         1 MOL     -0.306083
    149 C50        -4.0160   -2.3110    1.7760 c3        1 MOL     -0.216991
    150 C51        -4.8980   -1.7230    2.8400 c         1 MOL      0.529258
    151 O21        -5.0810   -2.3660    3.8680 o         1 MOL     -0.564175
    152 C52        -2.5940   -1.7060    1.7630 c3        1 MOL      0.109051
    153 C53        -1.7650   -2.1560    0.5270 c3        1 MOL     -0.163678
    154 C54        -0.4410   -1.3660    0.3250 c         1 MOL      0.454603
    155 O22        -0.2930   -0.1660    0.6800 o         1 MOL     -0.579709
    156 O23         0.5220   -1.8990   -0.2820 o         1 MOL     -0.579709
    157 H67        -4.3590   -1.2100   -0.0380 hn        1 MOL      0.282763
    158 H68        -3.9300   -3.3920    1.8390 h1        1 MOL      0.146896
    159 H69        -2.1710   -2.0690    2.7070 hc        1 MOL      0.015116
    160 H70        -2.7540   -0.6320    1.7000 hc        1 MOL      0.015116
    161 H71        -2.4150   -2.0440   -0.3370 hc        1 MOL      0.066464
    162 H72        -1.6590   -3.2120    0.7960 hc        1 MOL      0.066464
    163 N14        -5.5610   -0.5700    2.5870 n         1 MOL     -0.050464
    164 C55        -6.4500    0.1190    3.5400 c3        1 MOL     -0.353571
    165 H73        -5.8670    0.4690    4.3920 h1        1 MOL      0.119506
    166 H74        -6.9190    0.9710    3.0480 h1        1 MOL      0.119506
    167 H75        -7.2190   -0.5710    3.8850 h1        1 MOL      0.119506
    168 H76        -5.2390    0.0130    1.8190 hn        1 MOL      0.083135
    169 Ca1         2.1780    0.0650   -0.4030 Ca        1 MOL      1.699302
    170 O24         1.5460   -0.0110    2.6250 oh        1 MOL     -0.725340
    171 H77         0.7600    0.1490    2.0990 ho        1 MOL      0.370081
    172 H78         1.2590   -0.5690    3.3450 ho        1 MOL      0.370081
    173 O25         4.1420    0.6850    1.7980 oh        1 MOL     -0.725340
    174 H79         3.3060    0.7130    2.2440 ho        1 MOL      0.370081
    175 H80         4.7780    0.4530    2.4760 ho        1 MOL      0.370081
@<TRIPOS>BOND
     1    1    2 1   
     2    1    4 1   
     3    1    5 1   
     4    1    6 1   
     5    2    3 2   
     6    2    7 1   
     7    7    8 1   
     8    7   15 1   
     9    8    9 1   
    10    8   11 1   
    11    8   16 1   
    12    9   10 2   
    13    9   19 1   
    14   11   12 1   
    15   11   17 1   
    16   11   18 1   
    17   12   13 1   
    18   12   14 1   
    19   19   20 1   
    20   19   24 1   
    21   20   21 1   
    22   20   23 1   
    23   20   25 1   
    24   21   22 2   
    25   21   29 1   
    26   23   26 1   
    27   23   27 1   
    28   23   28 1   
    29   29   30 1   
    30   29   37 1   
    31   30   31 1   
    32   30   33 1   
    33   30   38 1   
    34   31   32 2   
    35   31   41 1   
    36   33   34 1   
    37   33   39 1   
    38   33   40 1   
    39   34   35 1   
    40   34   36 1   
    41   41   42 1   
    42   41   45 1   
    43   42   43 1   
    44   42   46 1   
    45   42   47 1   
    46   43   44 2   
    47   43   48 1   
    48   48   49 1   
    49   48   56 1   
    50   49   50 1   
    51   49   52 1   
    52   49   57 1   
    53   50   51 2   
    54   50   62 1   
    55   52   53 1   
    56   52   58 1   
    57   52   59 1   
    58   53   54 1   
    59   53   55 2   
    60   54   60 1   
    61   54   61 1   
    62   62   63 1   
    63   62   66 1   
    64   63   64 1   
    65   63   67 1   
    66   63   68 1   
    67   64   65 2   
    68   64   69 1   
    69   69   70 1   
    70   69   76 1   
    71   70   71 1   
    72   70   73 1   
    73   70   77 1   
    74   71   72 2   
    75   71   83 1   
    76   73   74 1   
    77   73   75 1   
    78   73   78 1   
    79   74   80 1   
    80   74   81 1   
    81   74   82 1   
    82   75   79 1   
    83   83   84 1   
    84   83   91 1   
    85   84   85 1   
    86   84   87 1   
    87   84   92 1   
    88   85   86 2   
    89   85  102 1   
    90   87   88 1   
    91   87   89 1   
    92   87   93 1   
    93   88   90 1   
    94   88   94 1   
    95   88   95 1   
    96   89   96 1   
    97   89   97 1   
    98   89   98 1   
    99   90   99 1   
   100   90  100 1   
   101   90  101 1   
   102  102  103 1   
   103  102  110 1   
   104  103  104 1   
   105  103  106 1   
   106  103  111 1   
   107  104  105 2   
   108  104  114 1   
   109  106  107 1   
   110  106  112 1   
   111  106  113 1   
   112  107  108 1   
   113  107  109 1   
   114  114  115 1   
   115  114  125 1   
   116  115  116 1   
   117  115  118 1   
   118  115  126 1   
   119  116  117 2   
   120  116  134 1   
   121  118  119 1   
   122  118  127 1   
   123  118  128 1   
   124  119  120 ar  
   125  119  121 ar  
   126  120  122 ar  
   127  120  129 1   
   128  121  123 ar  
   129  121  130 1   
   130  122  124 ar  
   131  122  131 1   
   132  123  124 ar  
   133  123  132 1   
   134  124  133 1   
   135  134  135 1   
   136  134  140 1   
   137  135  136 1   
   138  135  138 1   
   139  135  141 1   
   140  136  137 2   
   141  136  148 1   
   142  138  139 1   
   143  138  142 1   
   144  138  143 1   
   145  139  140 1   
   146  139  144 1   
   147  139  145 1   
   148  140  146 1   
   149  140  147 1   
   150  148  149 1   
   151  148  157 1   
   152  149  150 1   
   153  149  152 1   
   154  149  158 1   
   155  150  151 2   
   156  150  163 1   
   157  152  153 1   
   158  152  159 1   
   159  152  160 1   
   160  153  154 1   
   161  153  161 1   
   162  153  162 1   
   163  154  155 1   
   164  154  156 1   
   165  163  164 1   
   166  163  168 1   
   167  164  165 1   
   168  164  166 1   
   169  164  167 1   
   170  170  171 1   
   171  170  172 1   
   172  173  174 1   
   173  173  175 1   
@<TRIPOS>SUBSTRUCTURE
     1 MOL         1 TEMP              0 ****  ****    0 ROOT
