@<TRIPOS>MOLECULE
MOL
  189   185     1     0     0
SMALL
resp


@<TRIPOS>ATOM
      1 C1         -0.1740    3.6560   -4.6660 c3        1 MOL     -0.201102
      2 C2          0.3980    3.0970   -3.3150 c         1 MOL      0.630688
      3 O1         -0.1960    3.3630   -2.2940 o         1 MOL     -0.566426
      4 H1         -0.5110    2.8270   -5.2890 hc        1 MOL      0.045479
      5 H2         -1.0140    4.3200   -4.4600 hc        1 MOL      0.045479
      6 H3          0.6060    4.2090   -5.1900 hc        1 MOL      0.045479
      7 N1          1.5860    2.4480   -3.3430 n         1 MOL     -0.597209
      8 C3          2.3650    1.9640   -2.1670 c3        1 MOL      0.408141
      9 C4          3.0030    3.1360   -1.3540 c         1 MOL      0.220995
     10 O2          4.1960    3.4100   -1.5430 o         1 MOL     -0.491193
     11 C5          3.4260    0.9020   -2.6250 c3        1 MOL     -0.346356
     12 C6          4.1790    0.2670   -1.4360 c         1 MOL      0.725894
     13 O3          5.3260   -0.2770   -1.7000 o         1 MOL     -0.643724
     14 O4          3.7380    0.3130   -0.2880 o         1 MOL     -0.643724
     15 H4          1.9330    2.2480   -4.2690 hn        1 MOL      0.316927
     16 H5          1.6820    1.4160   -1.5190 h1        1 MOL     -0.083030
     17 H6          4.1190    1.2620   -3.3810 hc        1 MOL      0.078080
     18 H7          2.8530    0.1050   -3.1090 hc        1 MOL      0.078080
     19 N2          2.2770    3.7630   -0.4530 n         1 MOL     -0.053360
     20 C7          2.6900    5.0250    0.1750 c3        1 MOL     -0.049039
     21 C8          3.6210    4.8720    1.4160 c         1 MOL      0.397143
     22 O5          4.2880    5.8210    1.8210 o         1 MOL     -0.546341
     23 C9          1.3880    5.7980    0.4960 c3        1 MOL     -0.004192
     24 C10         0.8430    6.4160   -0.7790 c3        1 MOL      0.082418
     25 C11        -0.4010    7.2490   -0.4700 c3        1 MOL     -0.023390
     26 C12        -0.9020    8.2040   -1.5640 c3        1 MOL     -0.090612
     27 N3         -1.4550    7.5200   -2.7150 n4        1 MOL     -0.236839
     28 H8          1.4070    3.3110   -0.2440 hn        1 MOL      0.266126
     29 H9          3.2640    5.5940   -0.5520 h1        1 MOL      0.095513
     30 H10         1.6250    6.4240    1.3550 hc        1 MOL      0.013840
     31 H11         0.6380    5.0560    0.7660 hc        1 MOL      0.013840
     32 H12         0.6490    5.5450   -1.4060 hc        1 MOL     -0.034871
     33 H13         1.6780    6.9810   -1.1930 hc        1 MOL     -0.034871
     34 H14        -0.1970    7.8240    0.4270 hc        1 MOL      0.053443
     35 H15        -1.2670    6.6460   -0.2030 hc        1 MOL      0.053443
     36 H16        -0.0610    8.8080   -1.8980 hx        1 MOL      0.102338
     37 H17        -1.6150    8.8790   -1.0740 hx        1 MOL      0.102338
     38 H18        -0.7640    7.3190   -3.4180 hn        1 MOL      0.303602
     39 H19        -1.9410    6.6510   -2.5030 hn        1 MOL      0.303602
     40 H20        -2.1420    8.0620   -3.2150 hn        1 MOL      0.303602
     41 N4          3.6330    3.6720    1.9260 n         1 MOL     -0.114984
     42 C13         4.5140    3.3300    3.0620 c3        1 MOL     -0.052393
     43 C14         5.8660    2.6080    2.7410 c         1 MOL      0.391382
     44 O6          6.7280    2.3900    3.6070 o         1 MOL     -0.491419
     45 C15         3.8110    2.6020    4.2330 c3        1 MOL     -0.249304
     46 C16         2.8600    1.4700    3.8240 c         1 MOL      0.823677
     47 O7          1.9670    1.1670    4.6540 o         1 MOL     -0.707486
     48 O8          2.9940    0.8200    2.7830 o         1 MOL     -0.707486
     49 H21         3.0230    2.9740    1.5130 hn        1 MOL      0.084634
     50 H22         4.8550    4.2760    3.4750 h1        1 MOL      0.115963
     51 H23         3.1740    3.2960    4.7890 hc        1 MOL      0.072975
     52 H24         4.5550    2.2950    4.9690 hc        1 MOL      0.072975
     53 N5          6.0360    2.2130    1.4510 n         1 MOL     -0.219697
     54 C17         7.1860    1.4430    0.8970 c3        1 MOL     -0.170298
     55 C18         7.3630   -0.0140    1.3980 c         1 MOL      0.527653
     56 O9          8.5240   -0.4090    1.6860 o         1 MOL     -0.580789
     57 H25         5.2350    2.3660    0.8680 hn        1 MOL      0.202946
     58 H26         8.0760    2.0490    1.0340 h1        1 MOL      0.103151
     59 H27         6.9500    1.3510   -0.1690 h1        1 MOL      0.103151
     60 N6          6.2890   -0.7960    1.4920 n         1 MOL     -0.155573
     61 C19         6.5040   -2.2510    1.8830 c3        1 MOL     -0.065905
     62 C20         6.6400   -3.1380    0.6430 c         1 MOL      0.483838
     63 O10         6.9290   -4.3070    0.7260 o         1 MOL     -0.546779
     64 C21         5.4130   -2.7300    2.8750 c3        1 MOL     -0.226191
     65 C22         4.0080   -2.6250    2.4300 c         1 MOL      0.765825
     66 O11         3.1140   -2.4280    3.2370 o         1 MOL     -0.708079
     67 O12         3.8190   -2.7640    1.1990 o         1 MOL     -0.708079
     68 H28         5.3650   -0.4600    1.2550 hn        1 MOL      0.116423
     69 H29         7.4250   -2.2930    2.4630 h1        1 MOL      0.133676
     70 H30         5.5310   -2.1750    3.7990 hc        1 MOL      0.063069
     71 H31         5.5840   -3.7820    3.0870 hc        1 MOL      0.063069
     72 N7          6.5820   -2.5270   -0.5520 n         1 MOL     -0.333666
     73 C23         6.6270   -3.3240   -1.7810 c3        1 MOL      0.006452
     74 C24         5.2930   -4.0400   -2.1830 c         1 MOL      0.415582
     75 O13         5.4370   -4.9440   -3.0050 o         1 MOL     -0.571548
     76 H32         6.2350   -1.5690   -0.5850 hn        1 MOL      0.216246
     77 H33         7.5260   -3.9120   -2.0130 h1        1 MOL      0.062596
     78 H34         6.6060   -2.5110   -2.5000 h1        1 MOL      0.062596
     79 N8          4.2090   -3.6800   -1.5880 n         1 MOL     -0.026804
     80 C25         2.8720   -4.2150   -2.0380 c3        1 MOL     -0.214784
     81 C26         1.8110   -3.1060   -1.9570 c         1 MOL      0.632491
     82 O14         2.0270   -2.0540   -1.3620 o         1 MOL     -0.616610
     83 C27         2.4250   -5.3850   -1.1840 c3        1 MOL      0.337082
     84 C28         3.1610   -6.6280   -1.1670 c3        1 MOL     -0.416776
     85 O15         2.3830   -5.0090    0.1300 oh        1 MOL     -0.571373
     86 H35         4.2600   -2.9830   -0.8720 hn        1 MOL      0.085805
     87 H36         2.9020   -4.5660   -3.0720 h1        1 MOL      0.101371
     88 H37         1.3750   -5.6530   -1.2810 h1        1 MOL      0.031400
     89 H38         3.3070   -5.0250    0.3830 ho        1 MOL      0.391269
     90 H39         3.0910   -7.1010   -2.1510 hc        1 MOL      0.112937
     91 H40         4.1920   -6.3930   -0.9220 hc        1 MOL      0.112937
     92 H41         2.7540   -7.2760   -0.3850 hc        1 MOL      0.112937
     93 N9          0.5660   -3.3090   -2.4410 n         1 MOL     -0.471912
     94 C29        -0.6310   -2.3880   -2.5290 c3        1 MOL      0.048969
     95 C30        -1.7930   -3.0020   -1.8310 c         1 MOL      0.555823
     96 O16        -2.1610   -4.1200   -2.1390 o         1 MOL     -0.560894
     97 C31        -0.9040   -1.9640   -3.9780 c3        1 MOL      0.062192
     98 C32         0.0990   -0.9670   -4.3900 c3        1 MOL      0.209196
     99 C33        -2.3200   -1.2850   -4.1040 c3        1 MOL     -0.444231
    100 C34         0.2180   -0.7990   -5.8850 c3        1 MOL     -0.308661
    101 H42         0.4870   -4.1090   -3.0510 hn        1 MOL      0.237589
    102 H43        -0.3700   -1.4860   -1.9670 h1        1 MOL      0.035489
    103 H44        -0.8000   -2.9040   -4.5060 hc        1 MOL      0.049082
    104 H45         1.0770   -1.3730   -4.1450 hc        1 MOL     -0.002144
    105 H46         0.0320   -0.0070   -3.8800 hc        1 MOL     -0.002144
    106 H47        -2.3050   -0.3240   -3.5910 hc        1 MOL      0.100450
    107 H48        -2.5080   -1.1180   -5.1660 hc        1 MOL      0.100450
    108 H49        -3.0760   -1.9890   -3.7600 hc        1 MOL      0.100450
    109 H50        -0.6550   -0.3490   -6.3570 hc        1 MOL      0.063286
    110 H51         1.0120   -0.0970   -6.1460 hc        1 MOL      0.063286
    111 H52         0.3260   -1.7700   -6.3530 hc        1 MOL      0.063286
    112 N10        -2.3440   -2.3150   -0.8230 n         1 MOL     -0.250091
    113 C35        -3.6030   -2.8070   -0.2350 c3        1 MOL     -0.060079
    114 C36        -4.8970   -2.2280   -0.8500 c         1 MOL      0.461605
    115 O17        -4.8950   -1.3620   -1.7470 o         1 MOL     -0.410346
    116 C37        -3.6750   -2.5150    1.2680 c3        1 MOL      0.012953
    117 C38        -2.3850   -2.9070    2.0190 c3        1 MOL     -0.334337
    118 O18        -3.8710   -1.0900    1.4450 oh        1 MOL     -0.468849
    119 H53        -2.0560   -1.4080   -0.4710 hn        1 MOL      0.371010
    120 H54        -3.5770   -3.8850   -0.3710 h1        1 MOL      0.092131
    121 H55        -4.4480   -3.0330    1.8330 h1        1 MOL      0.069288
    122 H56        -3.2670   -0.8270    2.1380 ho        1 MOL      0.394091
    123 H57        -2.2230   -3.9840    1.9470 hc        1 MOL      0.102016
    124 H58        -1.5660   -2.2730    1.6810 hc        1 MOL      0.102016
    125 H59        -2.5820   -2.6980    3.0770 hc        1 MOL      0.102016
    126 N11        -6.0510   -2.6590   -0.2940 n         1 MOL     -0.349780
    127 C39        -7.4240   -2.1150   -0.6570 c3        1 MOL     -0.181405
    128 C40        -7.6100   -0.6330   -0.2870 c         1 MOL      0.410682
    129 O19        -8.4180    0.0700   -0.8700 o         1 MOL     -0.483561
    130 C41        -8.5730   -2.8590    0.0470 c3        1 MOL      0.448235
    131 C42        -8.4680   -4.3110   -0.3670 c3        1 MOL     -0.599140
    132 O20        -8.5450   -2.7740    1.4330 oh        1 MOL     -0.631528
    133 H60        -5.9840   -3.3220    0.4590 hn        1 MOL      0.241843
    134 H61        -7.6160   -2.2980   -1.7130 h1        1 MOL      0.149207
    135 H62        -9.4920   -2.3910   -0.3020 h1        1 MOL      0.020659
    136 H63        -9.3290   -2.2650    1.6690 ho        1 MOL      0.377659
    137 H64        -8.1780   -4.3990   -1.4120 hc        1 MOL      0.167693
    138 H65        -7.8180   -5.0040    0.1470 hc        1 MOL      0.167693
    139 H66        -9.4470   -4.7620   -0.2380 hc        1 MOL      0.167693
    140 N12        -6.9490   -0.1670    0.8280 n         1 MOL     -0.232733
    141 C43        -6.9960    1.2220    1.4120 c3        1 MOL     -0.124385
    142 C44        -6.1710    2.1060    0.4940 c         1 MOL      0.421758
    143 O21        -6.6110    3.0930   -0.0710 o         1 MOL     -0.470340
    144 C45        -6.7010    1.2370    2.9450 c3        1 MOL      0.092634
    145 C46        -7.6250    0.3130    3.7810 c3        1 MOL     -0.292780
    146 C47        -7.0940    0.4220    5.2240 c3        1 MOL      0.030350
    147 C48        -7.7270   -0.6310    6.1710 c3        1 MOL     -0.054019
    148 N13        -7.9330   -1.9730    5.6000 n4        1 MOL     -0.436228
    149 H67        -6.2630   -0.7490    1.2750 hn        1 MOL      0.205494
    150 H68        -8.0200    1.5930    1.3810 h1        1 MOL      0.108127
    151 H69        -6.7950    2.2700    3.2880 hc        1 MOL      0.018719
    152 H70        -5.6430    0.9960    3.0020 hc        1 MOL      0.018719
    153 H71        -7.6020   -0.7210    3.4430 hc        1 MOL      0.107797
    154 H72        -8.6250    0.7360    3.6740 hc        1 MOL      0.107797
    155 H73        -7.2510    1.4130    5.6520 hc        1 MOL      0.046220
    156 H74        -6.0250    0.2310    5.2390 hc        1 MOL      0.046220
    157 H75        -8.6100   -0.2280    6.6620 hx        1 MOL      0.123581
    158 H76        -7.0700   -0.7010    7.0420 hx        1 MOL      0.123581
    159 H77        -7.0790   -2.2880    5.1770 hn        1 MOL      0.329108
    160 H78        -8.1730   -2.6580    6.3050 hn        1 MOL      0.329108
    161 H79        -8.6310   -1.9670    4.8690 hn        1 MOL      0.329108
    162 N14        -4.8740    1.6730    0.2200 n         1 MOL     -0.262127
    163 C49        -3.9340    2.2600   -0.7580 c3        1 MOL     -0.137425
    164 C50        -4.5150    2.3810   -2.2270 c         1 MOL      0.455301
    165 O22        -4.3110    3.4140   -2.8370 o         1 MOL     -0.566088
    166 C51        -2.6350    1.4630   -0.8020 c3        1 MOL      0.076163
    167 C52        -1.6960    1.8200    0.3630 c3        1 MOL     -0.325537
    168 C53        -0.3980    1.0010    0.4520 c         1 MOL      0.780297
    169 O23        -0.3740   -0.1830    0.1100 o         1 MOL     -0.723213
    170 O24         0.6650    1.4620    0.9580 o         1 MOL     -0.723213
    171 H80        -4.5460    0.8180    0.6480 hn        1 MOL      0.247353
    172 H81        -3.7200    3.3080   -0.5510 h1        1 MOL      0.113417
    173 H82        -2.1830    1.5650   -1.7970 hc        1 MOL     -0.002065
    174 H83        -2.8740    0.3980   -0.6970 hc        1 MOL     -0.002065
    175 H84        -2.2300    1.7080    1.3040 hc        1 MOL      0.042186
    176 H85        -1.5660    2.9030    0.3220 hc        1 MOL      0.042186
    177 N15        -5.2590    1.3630   -2.7090 n         1 MOL     -0.046488
    178 C54        -5.9750    1.3300   -4.0090 c3        1 MOL     -0.272587
    179 H86        -5.3880    0.7630   -4.7320 h1        1 MOL      0.105221
    180 H87        -6.9460    0.8530   -3.8770 h1        1 MOL      0.105221
    181 H88        -6.1150    2.3470   -4.3740 h1        1 MOL      0.105221
    182 H89        -5.2650    0.5520   -2.1170 hn        1 MOL      0.143081
    183 Ca1         1.9730   -0.9080    1.0370 Ca        1 MOL      1.762433
    184 O25         0.6610   -3.3490    1.4920 oh        1 MOL     -0.849730
    185 H90         0.7130   -3.6950    2.3860 ho        1 MOL      0.393781
    186 H91         0.7360   -4.1180    0.9320 ho        1 MOL      0.393781
    187 O26         0.5460   -0.6330    3.3300 oh        1 MOL     -0.849730
    188 H92         0.1790   -1.3360    3.8670 ho        1 MOL      0.393781
    189 H93         0.9270   -0.0210    3.9540 ho        1 MOL      0.393781
@<TRIPOS>BOND
     1    1    2 1   
     2    1    4 1   
     3    1    5 1   
     4    1    6 1   
     5    2    3 2   
     6    2    7 1   
     7    7    8 1   
     8    7   15 1   
     9    8    9 1   
    10    8   11 1   
    11    8   16 1   
    12    9   10 2   
    13    9   19 1   
    14   11   12 1   
    15   11   17 1   
    16   11   18 1   
    17   12   13 1   
    18   12   14 1   
    19   19   20 1   
    20   19   28 1   
    21   20   21 1   
    22   20   23 1   
    23   20   29 1   
    24   21   22 2   
    25   21   41 1   
    26   23   24 1   
    27   23   30 1   
    28   23   31 1   
    29   24   25 1   
    30   24   32 1   
    31   24   33 1   
    32   25   26 1   
    33   25   34 1   
    34   25   35 1   
    35   26   27 1   
    36   26   36 1   
    37   26   37 1   
    38   27   38 1   
    39   27   39 1   
    40   27   40 1   
    41   41   42 1   
    42   41   49 1   
    43   42   43 1   
    44   42   45 1   
    45   42   50 1   
    46   43   44 2   
    47   43   53 1   
    48   45   46 1   
    49   45   51 1   
    50   45   52 1   
    51   46   47 1   
    52   46   48 1   
    53   53   54 1   
    54   53   57 1   
    55   54   55 1   
    56   54   58 1   
    57   54   59 1   
    58   55   56 2   
    59   55   60 1   
    60   60   61 1   
    61   60   68 1   
    62   61   62 1   
    63   61   64 1   
    64   61   69 1   
    65   62   63 2   
    66   62   72 1   
    67   64   65 1   
    68   64   70 1   
    69   64   71 1   
    70   65   66 1   
    71   65   67 1   
    72   72   73 1   
    73   72   76 1   
    74   73   74 1   
    75   73   77 1   
    76   73   78 1   
    77   74   75 2   
    78   74   79 1   
    79   79   80 1   
    80   79   86 1   
    81   80   81 1   
    82   80   83 1   
    83   80   87 1   
    84   81   82 2   
    85   81   93 1   
    86   83   84 1   
    87   83   85 1   
    88   83   88 1   
    89   84   90 1   
    90   84   91 1   
    91   84   92 1   
    92   85   89 1   
    93   93   94 1   
    94   93  101 1   
    95   94   95 1   
    96   94   97 1   
    97   94  102 1   
    98   95   96 2   
    99   95  112 1   
   100   97   98 1   
   101   97   99 1   
   102   97  103 1   
   103   98  100 1   
   104   98  104 1   
   105   98  105 1   
   106   99  106 1   
   107   99  107 1   
   108   99  108 1   
   109  100  109 1   
   110  100  110 1   
   111  100  111 1   
   112  112  113 1   
   113  112  119 1   
   114  113  114 1   
   115  113  116 1   
   116  113  120 1   
   117  114  115 2   
   118  114  126 1   
   119  116  117 1   
   120  116  118 1   
   121  116  121 1   
   122  117  123 1   
   123  117  124 1   
   124  117  125 1   
   125  118  122 1   
   126  126  127 1   
   127  126  133 1   
   128  127  128 1   
   129  127  130 1   
   130  127  134 1   
   131  128  129 2   
   132  128  140 1   
   133  130  131 1   
   134  130  132 1   
   135  130  135 1   
   136  131  137 1   
   137  131  138 1   
   138  131  139 1   
   139  132  136 1   
   140  140  141 1   
   141  140  149 1   
   142  141  142 1   
   143  141  144 1   
   144  141  150 1   
   145  142  143 2   
   146  142  162 1   
   147  144  145 1   
   148  144  151 1   
   149  144  152 1   
   150  145  146 1   
   151  145  153 1   
   152  145  154 1   
   153  146  147 1   
   154  146  155 1   
   155  146  156 1   
   156  147  148 1   
   157  147  157 1   
   158  147  158 1   
   159  148  159 1   
   160  148  160 1   
   161  148  161 1   
   162  162  163 1   
   163  162  171 1   
   164  163  164 1   
   165  163  166 1   
   166  163  172 1   
   167  164  165 2   
   168  164  177 1   
   169  166  167 1   
   170  166  173 1   
   171  166  174 1   
   172  167  168 1   
   173  167  175 1   
   174  167  176 1   
   175  168  169 1   
   176  168  170 1   
   177  177  178 1   
   178  177  182 1   
   179  178  179 1   
   180  178  180 1   
   181  178  181 1   
   182  184  185 1   
   183  184  186 1   
   184  187  188 1   
   185  187  189 1   
@<TRIPOS>SUBSTRUCTURE
     1 MOL         1 TEMP              0 ****  ****    0 ROOT
