@<TRIPOS>MOLECULE
MOL
  189   185     1     0     0
SMALL
resp


@<TRIPOS>ATOM
      1 C1         -0.9450    2.7030    6.3620 c3        1 MOL     -0.374291
      2 C2         -1.0130    2.7330    4.8420 c         1 MOL      0.724090
      3 O1         -0.3240    3.5090    4.1330 o         1 MOL     -0.666610
      4 H1         -1.1920    1.7020    6.7160 hc        1 MOL      0.104730
      5 H2          0.0620    2.9650    6.6870 hc        1 MOL      0.104730
      6 H3         -1.6570    3.4180    6.7720 hc        1 MOL      0.104730
      7 N1         -1.8280    1.8830    4.2360 n         1 MOL     -0.635445
      8 C3         -2.2580    1.8220    2.7890 c3        1 MOL      0.164441
      9 C4         -2.6700    3.2470    2.2760 c         1 MOL      0.667683
     10 O2         -3.7450    3.7620    2.6130 o         1 MOL     -0.537974
     11 C5         -3.5250    0.9510    2.8040 c3        1 MOL     -0.397520
     12 C6         -4.2650    0.5400    1.4730 c         1 MOL      0.880165
     13 O3         -5.4020    0.0320    1.5670 o         1 MOL     -0.674609
     14 O4         -3.6200    0.6560    0.3830 o         1 MOL     -0.674609
     15 H4         -2.2350    1.1790    4.8330 hn        1 MOL      0.332919
     16 H5         -1.5040    1.3580    2.1620 h1        1 MOL     -0.001671
     17 H6         -4.3710    1.4200    3.3130 hc        1 MOL      0.096190
     18 H7         -3.3340    0.0320    3.3540 hc        1 MOL      0.096190
     19 N2         -1.7820    3.7660    1.4160 n         1 MOL     -0.437273
     20 C7         -1.8510    5.1060    0.8890 c3        1 MOL      0.065729
     21 C8         -2.8490    5.3040   -0.2380 c         1 MOL      0.335207
     22 O5         -3.3890    6.4150   -0.4080 o         1 MOL     -0.522023
     23 C9         -0.4410    5.4380    0.4070 c3        1 MOL     -0.159789
     24 C10         0.7050    5.5110    1.4480 c3        1 MOL      0.159676
     25 C11         1.9390    5.9800    0.7570 c3        1 MOL     -0.125737
     26 C12         2.9840    6.1520    1.8770 c3        1 MOL      0.255410
     27 N3          4.1040    6.9900    1.3720 n4        1 MOL     -0.380487
     28 H8         -0.8920    3.3110    1.3570 hn        1 MOL      0.311589
     29 H9         -2.0760    5.8520    1.6520 h1        1 MOL      0.072295
     30 H10        -0.5800    6.4450    0.0010 hc        1 MOL      0.039714
     31 H11        -0.2550    4.6570   -0.3270 hc        1 MOL      0.039714
     32 H12         0.8880    4.5270    1.8840 hc        1 MOL      0.021359
     33 H13         0.4460    6.2130    2.2490 hc        1 MOL      0.021359
     34 H14         1.8450    6.9480    0.2680 hc        1 MOL      0.020303
     35 H15         2.3290    5.2640    0.0430 hc        1 MOL      0.020303
     36 H16         3.3600    5.1530    2.0870 hx        1 MOL      0.021714
     37 H17         2.5890    6.5390    2.8120 hx        1 MOL      0.021714
     38 H18         4.9760    6.6830    1.7940 hn        1 MOL      0.319923
     39 H19         4.2570    6.8150    0.3960 hn        1 MOL      0.319923
     40 H20         3.9310    7.9860    1.4580 hn        1 MOL      0.319923
     41 N4         -3.1610    4.2290   -1.0200 n         1 MOL     -0.047016
     42 C13        -4.1140    4.3440   -2.0930 c3        1 MOL     -0.012511
     43 C14        -5.4410    3.5970   -1.8790 c         1 MOL      0.412343
     44 O6         -6.4270    3.8690   -2.5310 o         1 MOL     -0.501859
     45 C15        -3.5380    3.9280   -3.4550 c3        1 MOL     -0.307423
     46 C16        -2.7890    2.6280   -3.5020 c         1 MOL      0.749340
     47 O7         -2.2530    2.2160   -4.6020 o         1 MOL     -0.672096
     48 O8         -2.4850    1.9500   -2.4490 o         1 MOL     -0.672096
     49 H21        -2.6730    3.3400   -0.9960 hn        1 MOL      0.100713
     50 H22        -4.3550    5.4060   -2.1620 h1        1 MOL      0.092081
     51 H23        -2.7810    4.6720   -3.6970 hc        1 MOL      0.094972
     52 H24        -4.3400    3.9070   -4.1900 hc        1 MOL      0.094972
     53 N5         -5.4950    2.6590   -0.9040 n         1 MOL     -0.014533
     54 C17        -6.7560    2.2240   -0.3910 c3        1 MOL     -0.167927
     55 C18        -7.2990    1.0490   -1.2330 c         1 MOL      0.579357
     56 O9         -8.2800    1.1860   -1.8740 o         1 MOL     -0.540848
     57 H25        -4.6450    2.4940   -0.3820 hn        1 MOL      0.004727
     58 H26        -7.5100    3.0130   -0.4350 h1        1 MOL      0.085824
     59 H27        -6.7270    1.9000    0.6410 h1        1 MOL      0.085824
     60 N6         -6.5350   -0.0490   -1.2680 n         1 MOL     -0.213126
     61 C19        -6.8640   -1.3890   -1.8350 c3        1 MOL      0.072579
     62 C20        -7.0320   -2.4540   -0.7750 c         1 MOL      0.309031
     63 O10        -7.6100   -3.5760   -1.0420 o         1 MOL     -0.536207
     64 C21        -5.8290   -1.7540   -2.9540 c3        1 MOL     -0.184853
     65 C22        -4.4170   -1.5490   -2.4820 c         1 MOL      0.712263
     66 O11        -3.6110   -0.9460   -3.2340 o         1 MOL     -0.685986
     67 O12        -4.0360   -2.0370   -1.4080 o         1 MOL     -0.685986
     68 H28        -5.7110   -0.0850   -0.6880 hn        1 MOL     -0.091921
     69 H29        -7.8130   -1.3340   -2.3720 h1        1 MOL      0.090809
     70 H30        -6.0210   -1.0550   -3.7680 hc        1 MOL      0.069118
     71 H31        -5.9930   -2.7540   -3.3430 hc        1 MOL      0.069118
     72 N7         -6.5650   -2.2290    0.4410 n         1 MOL     -0.124683
     73 C23        -6.6200   -3.2090    1.5040 c3        1 MOL     -0.190971
     74 C24        -5.4590   -4.1780    1.4470 c         1 MOL      0.568863
     75 O13        -5.4970   -5.2610    2.0330 o         1 MOL     -0.571840
     76 H32        -5.9930   -1.4250    0.6280 hn        1 MOL      0.251206
     77 H33        -7.5650   -3.7530    1.5120 h1        1 MOL      0.102455
     78 H34        -6.4940   -2.7320    2.4830 h1        1 MOL      0.102455
     79 N8         -4.3960   -3.8320    0.6730 n         1 MOL     -0.280885
     80 C25        -3.1040   -4.5810    0.6270 c3        1 MOL     -0.351113
     81 C26        -1.9590   -3.6410    0.9300 c         1 MOL      0.762074
     82 O14        -1.9290   -2.4620    0.5220 o         1 MOL     -0.736713
     83 C27        -2.9480   -5.2950   -0.6230 c3        1 MOL      0.609104
     84 C28        -3.9010   -6.4670   -0.6940 c3        1 MOL     -0.576069
     85 O15        -3.1240   -4.4560   -1.6690 oh        1 MOL     -0.679777
     86 H35        -4.4000   -3.0230    0.0720 hn        1 MOL      0.218022
     87 H36        -3.1750   -5.3200    1.4250 h1        1 MOL      0.127551
     88 H37        -1.9590   -5.7650   -0.6550 h1        1 MOL     -0.045385
     89 H38        -3.5590   -3.6510   -1.3990 ho        1 MOL      0.460558
     90 H39        -3.9000   -6.8000   -1.7370 hc        1 MOL      0.143789
     91 H40        -3.6750   -7.2650    0.0130 hc        1 MOL      0.143789
     92 H41        -4.9480   -6.2680   -0.5080 hc        1 MOL      0.143789
     93 N9         -0.8650   -4.1480    1.5360 n         1 MOL     -0.563522
     94 C29         0.4220   -3.4400    1.7110 c3        1 MOL      0.310673
     95 C30         1.3900   -3.9130    0.6270 c         1 MOL      0.358719
     96 O16         1.4230   -5.0630    0.1840 o         1 MOL     -0.548379
     97 C31         0.9140   -3.4740    3.2010 c3        1 MOL      0.082651
     98 C32        -0.0750   -2.8590    4.2130 c3        1 MOL     -0.031319
     99 C33         2.3190   -3.0820    3.2530 c3        1 MOL     -0.124057
    100 C34        -0.1920   -1.3410    4.3200 c3        1 MOL      0.020294
    101 H42        -0.9630   -5.0960    1.8600 hn        1 MOL      0.259896
    102 H43         0.2240   -2.3720    1.5810 h1        1 MOL      0.089836
    103 H44         0.9320   -4.5090    3.5470 hc        1 MOL     -0.022570
    104 H45         0.3040   -3.0910    5.2120 hc        1 MOL      0.006815
    105 H46        -1.0670   -3.2950    4.1180 hc        1 MOL      0.006815
    106 H47         2.5170   -2.1050    2.8180 hc        1 MOL      0.020736
    107 H48         2.5570   -3.0180    4.3140 hc        1 MOL      0.020736
    108 H49         2.9100   -3.8770    2.7900 hc        1 MOL      0.020736
    109 H50        -1.0220   -1.0920    4.9760 hc        1 MOL     -0.007209
    110 H51         0.7370   -0.9650    4.7530 hc        1 MOL     -0.007209
    111 H52        -0.2870   -0.9410    3.3150 hc        1 MOL     -0.007209
    112 N10         2.2150   -2.9740    0.1250 n         1 MOL      0.008071
    113 C35         3.2730   -3.1760   -0.8630 c3        1 MOL     -0.003803
    114 C36         4.6010   -2.7590   -0.3260 c         1 MOL      0.334931
    115 O17         4.7490   -2.2830    0.8220 o         1 MOL     -0.432187
    116 C37         2.8070   -2.4860   -2.2130 c3        1 MOL      0.349779
    117 C38         1.8920   -3.3810   -2.9490 c3        1 MOL     -0.251085
    118 O18         2.3140   -1.1550   -2.2090 oh        1 MOL     -0.684901
    119 H53         2.0570   -2.0740    0.5360 hn        1 MOL     -0.088669
    120 H54         3.4070   -4.2450   -1.0330 h1        1 MOL      0.088902
    121 H55         3.6840   -2.3670   -2.8470 h1        1 MOL     -0.007898
    122 H56         1.6150   -1.0400   -1.5550 ho        1 MOL      0.471768
    123 H57         2.4150   -4.2840   -3.2480 hc        1 MOL      0.060473
    124 H58         1.1980   -3.7730   -2.2060 hc        1 MOL      0.060473
    125 H59         1.3490   -3.0200   -3.8260 hc        1 MOL      0.060473
    126 N11         5.6450   -2.9380   -1.1130 n         1 MOL     -0.228478
    127 C39         7.0170   -2.7260   -0.5590 c3        1 MOL     -0.042617
    128 C40         7.3940   -1.2400   -0.2150 c         1 MOL      0.373738
    129 O19         8.1140   -1.0540    0.7720 o         1 MOL     -0.460313
    130 C41         8.0930   -3.2090   -1.4760 c3        1 MOL      0.458710
    131 C42         9.1890   -3.9320   -0.7140 c3        1 MOL     -0.385220
    132 O20         7.5200   -4.0350   -2.4660 oh        1 MOL     -0.616660
    133 H60         5.4920   -3.1790   -2.0760 hn        1 MOL      0.170857
    134 H61         7.1200   -3.2440    0.3980 h1        1 MOL      0.124470
    135 H62         8.5400   -2.3120   -1.9110 h1        1 MOL     -0.054121
    136 H63         8.0670   -4.0180   -3.2490 ho        1 MOL      0.380590
    137 H64        10.0360   -3.9630   -1.4060 hc        1 MOL      0.102588
    138 H65         9.4040   -3.1970    0.0690 hc        1 MOL      0.102588
    139 H66         8.8100   -4.8290   -0.2400 hc        1 MOL      0.102588
    140 N12         6.8650   -0.2220   -0.9020 n         1 MOL     -0.320676
    141 C43         6.9100    1.2020   -0.4740 c3        1 MOL      0.110482
    142 C44         6.1610    1.3320    0.8340 c         1 MOL      0.359573
    143 O21         6.6670    2.0120    1.7470 o         1 MOL     -0.507234
    144 C45         6.4080    2.0970   -1.6190 c3        1 MOL     -0.198552
    145 C46         7.4570    2.2460   -2.7660 c3        1 MOL      0.151428
    146 C47         6.8290    2.6270   -4.0810 c3        1 MOL     -0.111207
    147 C48         7.8050    2.5790   -5.2690 c3        1 MOL      0.166217
    148 N13         7.0640    2.7910   -6.5320 n4        1 MOL     -0.376615
    149 H67         6.2550   -0.3620   -1.6880 hn        1 MOL      0.201720
    150 H68         7.9390    1.4640   -0.2200 h1        1 MOL      0.062289
    151 H69         6.1990    3.0690   -1.1640 hc        1 MOL      0.071771
    152 H70         5.4680    1.7600   -2.0400 hc        1 MOL      0.071771
    153 H71         8.0280    1.3380   -2.9460 hc        1 MOL     -0.015440
    154 H72         8.1730    3.0350   -2.5330 hc        1 MOL     -0.015440
    155 H73         6.4160    3.6250   -3.9400 hc        1 MOL      0.046887
    156 H74         6.0510    1.9100   -4.3490 hc        1 MOL      0.046887
    157 H75         8.2950    1.6080   -5.3610 hx        1 MOL      0.045158
    158 H76         8.6420    3.2780   -5.2450 hx        1 MOL      0.045158
    159 H77         7.7280    2.5940   -7.2710 hn        1 MOL      0.296050
    160 H78         6.3370    2.1030   -6.6680 hn        1 MOL      0.296050
    161 H79         6.7160    3.7360   -6.5860 hn        1 MOL      0.296050
    162 N14         4.9800    0.8010    0.9180 n         1 MOL     -0.192967
    163 C49         4.0440    1.0680    2.0780 c3        1 MOL     -0.295419
    164 C50         4.6370    0.4610    3.4100 c         1 MOL      0.495395
    165 O22         4.7010    1.1520    4.4340 o         1 MOL     -0.532347
    166 C51         2.7450    0.4080    1.6460 c3        1 MOL      0.113992
    167 C52         2.0810    1.2050    0.4780 c3        1 MOL     -0.034386
    168 C53         0.7720    0.5830    0.0580 c         1 MOL      0.816157
    169 O23         0.6960   -0.6190   -0.3350 o         1 MOL     -0.742553
    170 O24        -0.2290    1.2840   -0.0060 o         1 MOL     -0.742553
    171 H80         4.7090    0.4210    0.0290 hn        1 MOL      0.186506
    172 H81         3.9070    2.1460    2.1080 h1        1 MOL      0.159620
    173 H82         2.0190    0.5080    2.4500 hc        1 MOL      0.019282
    174 H83         2.9270   -0.6440    1.4460 hc        1 MOL      0.019282
    175 H84         2.6750    1.2220   -0.4360 hc        1 MOL     -0.019663
    176 H85         1.9370    2.2470    0.7760 hc        1 MOL     -0.019663
    177 N15         5.0950   -0.8290    3.3800 n         1 MOL      0.009214
    178 C54         5.5900   -1.5030    4.5600 c3        1 MOL     -0.369078
    179 H86         4.8120   -1.5160    5.3230 h1        1 MOL      0.127811
    180 H87         5.8660   -2.5260    4.3060 h1        1 MOL      0.127811
    181 H88         6.4630   -0.9740    4.9410 h1        1 MOL      0.127811
    182 H89         5.1470   -1.2360    2.4620 hn        1 MOL      0.113668
    183 Ca1        -1.9180   -0.2870   -1.2500 Ca        1 MOL      1.754267
    184 O25        -1.2290   -2.4690   -2.4830 oh        1 MOL     -0.872115
    185 H90        -0.5110   -2.7880   -3.0300 ho        1 MOL      0.399912
    186 H91        -1.9300   -3.1210   -2.6080 ho        1 MOL      0.399912
    187 O26        -0.4680    0.2150   -3.5560 oh        1 MOL     -0.872115
    188 H92        -1.0790    0.8570   -3.9340 ho        1 MOL      0.399912
    189 H93        -0.1670   -0.2950   -4.3070 ho        1 MOL      0.399912
@<TRIPOS>BOND
     1    1    2 1   
     2    1    4 1   
     3    1    5 1   
     4    1    6 1   
     5    2    3 2   
     6    2    7 1   
     7    7    8 1   
     8    7   15 1   
     9    8    9 1   
    10    8   11 1   
    11    8   16 1   
    12    9   10 2   
    13    9   19 1   
    14   11   12 1   
    15   11   17 1   
    16   11   18 1   
    17   12   13 1   
    18   12   14 1   
    19   19   20 1   
    20   19   28 1   
    21   20   21 1   
    22   20   23 1   
    23   20   29 1   
    24   21   22 2   
    25   21   41 1   
    26   23   24 1   
    27   23   30 1   
    28   23   31 1   
    29   24   25 1   
    30   24   32 1   
    31   24   33 1   
    32   25   26 1   
    33   25   34 1   
    34   25   35 1   
    35   26   27 1   
    36   26   36 1   
    37   26   37 1   
    38   27   38 1   
    39   27   39 1   
    40   27   40 1   
    41   41   42 1   
    42   41   49 1   
    43   42   43 1   
    44   42   45 1   
    45   42   50 1   
    46   43   44 2   
    47   43   53 1   
    48   45   46 1   
    49   45   51 1   
    50   45   52 1   
    51   46   47 1   
    52   46   48 1   
    53   53   54 1   
    54   53   57 1   
    55   54   55 1   
    56   54   58 1   
    57   54   59 1   
    58   55   56 2   
    59   55   60 1   
    60   60   61 1   
    61   60   68 1   
    62   61   62 1   
    63   61   64 1   
    64   61   69 1   
    65   62   63 2   
    66   62   72 1   
    67   64   65 1   
    68   64   70 1   
    69   64   71 1   
    70   65   66 1   
    71   65   67 1   
    72   72   73 1   
    73   72   76 1   
    74   73   74 1   
    75   73   77 1   
    76   73   78 1   
    77   74   75 2   
    78   74   79 1   
    79   79   80 1   
    80   79   86 1   
    81   80   81 1   
    82   80   83 1   
    83   80   87 1   
    84   81   82 2   
    85   81   93 1   
    86   83   84 1   
    87   83   85 1   
    88   83   88 1   
    89   84   90 1   
    90   84   91 1   
    91   84   92 1   
    92   85   89 1   
    93   93   94 1   
    94   93  101 1   
    95   94   95 1   
    96   94   97 1   
    97   94  102 1   
    98   95   96 2   
    99   95  112 1   
   100   97   98 1   
   101   97   99 1   
   102   97  103 1   
   103   98  100 1   
   104   98  104 1   
   105   98  105 1   
   106   99  106 1   
   107   99  107 1   
   108   99  108 1   
   109  100  109 1   
   110  100  110 1   
   111  100  111 1   
   112  112  113 1   
   113  112  119 1   
   114  113  114 1   
   115  113  116 1   
   116  113  120 1   
   117  114  115 2   
   118  114  126 1   
   119  116  117 1   
   120  116  118 1   
   121  116  121 1   
   122  117  123 1   
   123  117  124 1   
   124  117  125 1   
   125  118  122 1   
   126  126  127 1   
   127  126  133 1   
   128  127  128 1   
   129  127  130 1   
   130  127  134 1   
   131  128  129 2   
   132  128  140 1   
   133  130  131 1   
   134  130  132 1   
   135  130  135 1   
   136  131  137 1   
   137  131  138 1   
   138  131  139 1   
   139  132  136 1   
   140  140  141 1   
   141  140  149 1   
   142  141  142 1   
   143  141  144 1   
   144  141  150 1   
   145  142  143 2   
   146  142  162 1   
   147  144  145 1   
   148  144  151 1   
   149  144  152 1   
   150  145  146 1   
   151  145  153 1   
   152  145  154 1   
   153  146  147 1   
   154  146  155 1   
   155  146  156 1   
   156  147  148 1   
   157  147  157 1   
   158  147  158 1   
   159  148  159 1   
   160  148  160 1   
   161  148  161 1   
   162  162  163 1   
   163  162  171 1   
   164  163  164 1   
   165  163  166 1   
   166  163  172 1   
   167  164  165 2   
   168  164  177 1   
   169  166  167 1   
   170  166  173 1   
   171  166  174 1   
   172  167  168 1   
   173  167  175 1   
   174  167  176 1   
   175  168  169 1   
   176  168  170 1   
   177  177  178 1   
   178  177  182 1   
   179  178  179 1   
   180  178  180 1   
   181  178  181 1   
   182  184  185 1   
   183  184  186 1   
   184  187  188 1   
   185  187  189 1   
@<TRIPOS>SUBSTRUCTURE
     1 MOL         1 TEMP              0 ****  ****    0 ROOT
