@<TRIPOS>MOLECULE
MOL
  175   173     1     0     0
SMALL
resp


@<TRIPOS>ATOM
      1 C1          0.5100    3.5050    5.7990 c3        1 MOL     -0.459529
      2 C2         -0.0640    3.6130    4.4110 c         1 MOL      0.768625
      3 O1          0.6030    3.5860    3.3880 o         1 MOL     -0.589086
      4 H1         -0.2500    3.7840    6.5280 hc        1 MOL      0.117498
      5 H2          0.8290    2.4780    5.9820 hc        1 MOL      0.117498
      6 H3          1.3660    4.1740    5.8920 hc        1 MOL      0.117498
      7 N1         -1.4100    3.5600    4.2430 n         1 MOL     -0.703819
      8 C3         -1.9690    3.3020    2.8890 c3        1 MOL      0.373168
      9 C4         -1.9320    4.5770    2.0370 c         1 MOL      0.418554
     10 O2         -2.4380    5.6360    2.4560 o         1 MOL     -0.549519
     11 C5         -3.3810    2.7890    3.0860 c3        1 MOL     -0.494193
     12 C6         -4.0840    2.7860    1.6620 c         1 MOL      0.704760
     13 O3         -3.5020    2.1110    0.7560 o         1 MOL     -0.621819
     14 O4         -5.0980    3.4720    1.4470 o         1 MOL     -0.621819
     15 H4         -1.9920    3.3390    5.0350 hn        1 MOL      0.326740
     16 H5         -1.3760    2.5770    2.3460 h1        1 MOL      0.006506
     17 H6         -3.9100    3.5070    3.7140 hc        1 MOL      0.099998
     18 H7         -3.3510    1.7960    3.5240 hc        1 MOL      0.099998
     19 N2         -1.5660    4.3940    0.7470 n         1 MOL     -0.329484
     20 C7         -1.6510    5.3630   -0.3140 c3        1 MOL      0.302394
     21 C8         -2.7600    5.1300   -1.4120 c         1 MOL      0.496985
     22 O5         -2.8910    5.8980   -2.3490 o         1 MOL     -0.591616
     23 C9         -0.2130    5.5830   -0.9030 c3        1 MOL     -0.331692
     24 H8         -1.2240    3.4670    0.5200 hn        1 MOL      0.262133
     25 H9         -2.0640    6.2880    0.0890 h1        1 MOL     -0.000041
     26 H10         0.5020    5.3100   -0.1240 hc        1 MOL      0.071293
     27 H11        -0.0340    4.8740   -1.7100 hc        1 MOL      0.071293
     28 H12        -0.1910    6.5950   -1.2870 hc        1 MOL      0.071293
     29 N3         -3.5050    4.0060   -1.4420 n         1 MOL     -0.330381
     30 C10        -4.4010    3.6590   -2.5610 c3        1 MOL      0.044389
     31 C11        -5.7300    2.9920   -2.1900 c         1 MOL      0.341675
     32 O6         -6.6100    2.8760   -3.0670 o         1 MOL     -0.578545
     33 C12        -3.6770    2.7810   -3.5770 c3        1 MOL     -0.171308
     34 C13        -3.0540    1.5390   -2.9760 c         1 MOL      0.776528
     35 O7         -3.6430    1.0180   -2.0130 o         1 MOL     -0.719256
     36 O8         -2.1190    0.9230   -3.4070 o         1 MOL     -0.719256
     37 H13        -3.2430    3.3250   -0.7500 hn        1 MOL      0.131510
     38 H14        -4.6390    4.5860   -3.0920 h1        1 MOL      0.111894
     39 H15        -2.8170    3.3170   -3.9800 hc        1 MOL      0.044163
     40 H16        -4.3180    2.4730   -4.4030 hc        1 MOL      0.044163
     41 N4         -6.0280    2.5360   -0.9980 n         1 MOL     -0.028375
     42 C14        -7.2310    1.8060   -0.6100 c3        1 MOL     -0.353732
     43 C15        -7.2450    0.3150   -0.8240 c         1 MOL      0.623216
     44 O9         -8.2900   -0.2600   -0.7290 o         1 MOL     -0.622727
     45 H17        -5.2910    2.4420   -0.3120 hn        1 MOL      0.093691
     46 H18        -8.0490    2.2440   -1.1900 h1        1 MOL      0.131472
     47 H19        -7.2790    1.9010    0.4830 h1        1 MOL      0.131472
     48 N5         -6.1400   -0.3050   -1.2730 n         1 MOL     -0.129003
     49 C16        -6.2790   -1.5000   -2.0690 c3        1 MOL     -0.140149
     50 C17        -6.4780   -2.7770   -1.1970 c         1 MOL      0.454580
     51 O10        -6.7760   -3.8080   -1.7790 o         1 MOL     -0.532914
     52 C18        -5.0940   -1.6430   -3.0410 c3        1 MOL     -0.138069
     53 C19        -3.7650   -2.0520   -2.4450 c         1 MOL      0.627177
     54 N6         -2.8010   -2.4640   -3.2250 n         1 MOL     -0.666816
     55 O11        -3.6140   -2.0600   -1.2780 o         1 MOL     -0.474670
     56 H20        -5.2270    0.1040   -1.3070 hn        1 MOL      0.190945
     57 H21        -7.1720   -1.4330   -2.6830 h1        1 MOL      0.123639
     58 H22        -4.8960   -0.7920   -3.6930 hc        1 MOL      0.053309
     59 H23        -5.3090   -2.4700   -3.7290 hc        1 MOL      0.053309
     60 H24        -2.9230   -2.5630   -4.2230 hn        1 MOL      0.328397
     61 H25        -1.8950   -2.6050   -2.7870 hn        1 MOL      0.328397
     62 N7         -6.3250   -2.6710    0.1080 n         1 MOL     -0.132151
     63 C20        -6.5290   -3.7470    1.1060 c3        1 MOL     -0.319072
     64 C21        -5.2170   -4.5710    1.3600 c         1 MOL      0.527625
     65 O12        -5.2810   -5.6440    2.0700 o         1 MOL     -0.579207
     66 H26        -6.3030   -1.7490    0.5220 hn        1 MOL      0.201262
     67 H27        -7.1320   -4.5760    0.7180 h1        1 MOL      0.135361
     68 H28        -6.9630   -3.4010    2.0470 h1        1 MOL      0.135361
     69 N8         -4.0530   -3.9720    1.0780 n         1 MOL     -0.247093
     70 C22        -2.7160   -4.6350    1.2670 c3        1 MOL     -0.126098
     71 C23        -1.5470   -3.5710    1.4810 c         1 MOL      0.328574
     72 O13        -1.7060   -2.3810    1.0370 o         1 MOL     -0.404261
     73 C24        -2.2980   -5.4260   -0.0150 c3        1 MOL      0.579508
     74 C25        -3.1440   -6.6460   -0.2490 c3        1 MOL     -0.567982
     75 O14        -2.4230   -4.6860   -1.1670 oh        1 MOL     -0.564968
     76 H29        -4.1070   -3.0890    0.5970 hn        1 MOL      0.156385
     77 H30        -2.7330   -5.2790    2.1520 h1        1 MOL      0.097014
     78 H31        -1.2650   -5.7540    0.0600 h1        1 MOL     -0.050189
     79 H32        -2.2110   -3.7640   -1.0420 ho        1 MOL      0.255547
     80 H33        -2.6840   -7.3190   -0.9770 hc        1 MOL      0.137361
     81 H34        -3.2460   -7.0830    0.7430 hc        1 MOL      0.137361
     82 H35        -4.1320   -6.4140   -0.6430 hc        1 MOL      0.137361
     83 N9         -0.3400   -3.9450    2.0050 n         1 MOL     -0.398861
     84 C26         0.7800   -2.9860    2.0360 c3        1 MOL     -0.054060
     85 C27         1.5550   -3.3020    0.7660 c         1 MOL      0.628117
     86 O15         2.1080   -4.3410    0.5830 o         1 MOL     -0.571261
     87 C28         1.6230   -3.2560    3.3440 c3        1 MOL      0.140276
     88 C29         0.8450   -2.9470    4.6600 c3        1 MOL      0.055022
     89 C30         2.9440   -2.3390    3.2740 c3        1 MOL     -0.185495
     90 C31         1.5560   -3.2140    5.9310 c3        1 MOL     -0.118337
     91 H36        -0.2660   -4.9270    2.2010 hn        1 MOL      0.271475
     92 H37         0.4050   -1.9690    2.1110 h1        1 MOL      0.109801
     93 H38         1.8760   -4.3150    3.3140 hc        1 MOL     -0.011440
     94 H39        -0.0230   -3.6210    4.6660 hc        1 MOL     -0.020370
     95 H40         0.5180   -1.9110    4.5530 hc        1 MOL     -0.020370
     96 H41         2.7040   -1.3540    2.8710 hc        1 MOL      0.043432
     97 H42         3.5080   -2.2290    4.2020 hc        1 MOL      0.043432
     98 H43         3.6130   -2.9300    2.6430 hc        1 MOL      0.043432
     99 H44         2.2370   -2.4100    6.1960 hc        1 MOL      0.022185
    100 H45         0.8240   -3.2090    6.7400 hc        1 MOL      0.022185
    101 H46         2.0510   -4.1850    5.9830 hc        1 MOL      0.022185
    102 N10         1.6140   -2.1920   -0.0660 n         1 MOL     -0.207337
    103 C32         2.4500   -2.0450   -1.2190 c3        1 MOL     -0.029349
    104 C33         3.9400   -1.5870   -0.9260 c         1 MOL      0.396540
    105 O16         4.2170   -1.0550    0.1850 o         1 MOL     -0.366798
    106 C34         1.7510   -1.1930   -2.3200 c3        1 MOL     -0.221275
    107 C35         0.4020   -1.7820   -2.6560 c         1 MOL      0.788490
    108 O17        -0.5440   -1.7100   -1.8730 o         1 MOL     -0.691664
    109 O18         0.3760   -2.2090   -3.8210 o         1 MOL     -0.691664
    110 H47         1.2560   -1.3140    0.2760 hn        1 MOL      0.040295
    111 H48         2.5170   -3.0690   -1.5870 h1        1 MOL      0.057633
    112 H49         2.4120   -1.0580   -3.1800 hc        1 MOL      0.068848
    113 H50         1.5300   -0.1970   -1.9450 hc        1 MOL      0.068848
    114 N11         4.8720   -1.7440   -1.8680 n         1 MOL     -0.555501
    115 C36         6.3550   -1.5300   -1.5340 c3        1 MOL      0.277611
    116 C37         6.5840   -0.0310   -1.1190 c         1 MOL      0.352176
    117 O19         7.2520    0.2070   -0.1070 o         1 MOL     -0.455557
    118 C38         7.3300   -2.0020   -2.5920 c3        1 MOL     -0.237855
    119 C39         8.7550   -1.6420   -2.1390 ca        1 MOL      0.009904
    120 C40         9.3710   -2.4210   -1.1050 ca        1 MOL     -0.095027
    121 C41         9.4290   -0.5530   -2.7580 ca        1 MOL     -0.095027
    122 C42        10.6680   -2.0600   -0.6570 ca        1 MOL     -0.176834
    123 C43        10.7750   -0.2920   -2.4030 ca        1 MOL     -0.176834
    124 C44        11.3200   -0.9740   -1.2950 ca        1 MOL     -0.050202
    125 H51         4.5580   -2.1190   -2.7590 hn        1 MOL      0.320726
    126 H52         6.4850   -2.1080   -0.6170 h1        1 MOL      0.077790
    127 H53         7.1010   -1.6030   -3.5730 hc        1 MOL      0.081725
    128 H54         7.2150   -3.0810   -2.7150 hc        1 MOL      0.081725
    129 H55         8.8480   -3.2650   -0.6850 ha        1 MOL      0.110736
    130 H56         8.9340    0.0210   -3.5260 ha        1 MOL      0.110736
    131 H57        11.0960   -2.6630    0.1360 ha        1 MOL      0.129700
    132 H58        11.2670    0.5500   -2.8630 ha        1 MOL      0.129700
    133 H59        12.2720   -0.6410   -0.9040 ha        1 MOL      0.088200
    134 N12         6.0320    0.9100   -1.9080 n         1 MOL     -0.109300
    135 C45         6.1600    2.3320   -1.4900 c3        1 MOL      0.054088
    136 C46         5.4720    2.8200   -0.1300 c         1 MOL      0.130799
    137 O20         5.8260    3.8270    0.5130 o         1 MOL     -0.482126
    138 C47         5.4580    3.1500   -2.5780 c3        1 MOL     -0.079343
    139 C48         5.5080    2.3030   -3.8080 c3        1 MOL      0.012082
    140 C49         5.4540    0.8600   -3.3090 c3        1 MOL     -0.042276
    141 H60         7.2250    2.5450   -1.4020 h1        1 MOL      0.071563
    142 H61         4.3980    3.2900   -2.3630 hc        1 MOL      0.060497
    143 H62         5.9770    4.0900   -2.7880 hc        1 MOL      0.060497
    144 H63         4.6980    2.4980   -4.5090 hc        1 MOL      0.011982
    145 H64         6.4370    2.5880   -4.2890 hc        1 MOL      0.011982
    146 H65         4.4120    0.5410   -3.3030 h1        1 MOL      0.050850
    147 H66         5.9670    0.1960   -4.0110 h1        1 MOL      0.050850
    148 N13         4.6390    1.9650    0.4070 n         1 MOL      0.080524
    149 C50         3.9970    1.9990    1.6620 c3        1 MOL     -0.117690
    150 C51         4.7920    1.2960    2.7860 c         1 MOL      0.476675
    151 O21         4.7610    1.7120    3.9370 o         1 MOL     -0.560194
    152 C52         2.6100    1.4190    1.4000 c3        1 MOL      0.003533
    153 C53         1.8110    2.1850    0.3800 c3        1 MOL     -0.098689
    154 C54         0.4790    1.4570    0.3120 c         1 MOL      0.704842
    155 O22        -0.4320    2.0890   -0.2730 o         1 MOL     -0.711570
    156 O23         0.3420    0.2340    0.5910 o         1 MOL     -0.711570
    157 H67         4.4090    1.1700   -0.1750 hn        1 MOL      0.116934
    158 H68         3.7150    2.9750    2.0590 h1        1 MOL      0.087987
    159 H69         2.0540    1.4750    2.3300 hc        1 MOL      0.034151
    160 H70         2.7530    0.3670    1.1570 hc        1 MOL      0.034151
    161 H71         2.3160    2.1850   -0.5910 hc        1 MOL      0.053997
    162 H72         1.5390    3.1770    0.7390 hc        1 MOL      0.053997
    163 N14         5.5150    0.2120    2.4620 n         1 MOL     -0.034735
    164 C55         6.3720   -0.4780    3.3850 c3        1 MOL     -0.225773
    165 H73         5.9120   -0.4830    4.3730 h1        1 MOL      0.078278
    166 H74         6.5180   -1.5040    3.0480 h1        1 MOL      0.078278
    167 H75         7.3350    0.0290    3.4350 h1        1 MOL      0.078278
    168 H76         5.4790   -0.1990    1.5390 hn        1 MOL      0.029176
    169 Ca1        -2.1550   -0.0040   -0.2620 Ca        1 MOL      1.673225
    170 O24        -1.7370    0.1110    2.5820 oh        1 MOL     -0.897205
    171 H77        -0.8120    0.3030    2.4930 ho        1 MOL      0.426652
    172 H78        -1.8920    0.0540    3.5260 ho        1 MOL      0.426652
    173 O25        -4.2890   -0.6740    1.5260 oh        1 MOL     -0.897205
    174 H79        -5.0620   -0.5880    2.0800 ho        1 MOL      0.426652
    175 H80        -3.5540   -0.4600    2.1030 ho        1 MOL      0.426652
@<TRIPOS>BOND
     1    1    2 1   
     2    1    4 1   
     3    1    5 1   
     4    1    6 1   
     5    2    3 2   
     6    2    7 1   
     7    7    8 1   
     8    7   15 1   
     9    8    9 1   
    10    8   11 1   
    11    8   16 1   
    12    9   10 2   
    13    9   19 1   
    14   11   12 1   
    15   11   17 1   
    16   11   18 1   
    17   12   13 1   
    18   12   14 1   
    19   19   20 1   
    20   19   24 1   
    21   20   21 1   
    22   20   23 1   
    23   20   25 1   
    24   21   22 2   
    25   21   29 1   
    26   23   26 1   
    27   23   27 1   
    28   23   28 1   
    29   29   30 1   
    30   29   37 1   
    31   30   31 1   
    32   30   33 1   
    33   30   38 1   
    34   31   32 2   
    35   31   41 1   
    36   33   34 1   
    37   33   39 1   
    38   33   40 1   
    39   34   35 1   
    40   34   36 1   
    41   41   42 1   
    42   41   45 1   
    43   42   43 1   
    44   42   46 1   
    45   42   47 1   
    46   43   44 2   
    47   43   48 1   
    48   48   49 1   
    49   48   56 1   
    50   49   50 1   
    51   49   52 1   
    52   49   57 1   
    53   50   51 2   
    54   50   62 1   
    55   52   53 1   
    56   52   58 1   
    57   52   59 1   
    58   53   54 1   
    59   53   55 2   
    60   54   60 1   
    61   54   61 1   
    62   62   63 1   
    63   62   66 1   
    64   63   64 1   
    65   63   67 1   
    66   63   68 1   
    67   64   65 2   
    68   64   69 1   
    69   69   70 1   
    70   69   76 1   
    71   70   71 1   
    72   70   73 1   
    73   70   77 1   
    74   71   72 2   
    75   71   83 1   
    76   73   74 1   
    77   73   75 1   
    78   73   78 1   
    79   74   80 1   
    80   74   81 1   
    81   74   82 1   
    82   75   79 1   
    83   83   84 1   
    84   83   91 1   
    85   84   85 1   
    86   84   87 1   
    87   84   92 1   
    88   85   86 2   
    89   85  102 1   
    90   87   88 1   
    91   87   89 1   
    92   87   93 1   
    93   88   90 1   
    94   88   94 1   
    95   88   95 1   
    96   89   96 1   
    97   89   97 1   
    98   89   98 1   
    99   90   99 1   
   100   90  100 1   
   101   90  101 1   
   102  102  103 1   
   103  102  110 1   
   104  103  104 1   
   105  103  106 1   
   106  103  111 1   
   107  104  105 2   
   108  104  114 1   
   109  106  107 1   
   110  106  112 1   
   111  106  113 1   
   112  107  108 1   
   113  107  109 1   
   114  114  115 1   
   115  114  125 1   
   116  115  116 1   
   117  115  118 1   
   118  115  126 1   
   119  116  117 2   
   120  116  134 1   
   121  118  119 1   
   122  118  127 1   
   123  118  128 1   
   124  119  120 ar  
   125  119  121 ar  
   126  120  122 ar  
   127  120  129 1   
   128  121  123 ar  
   129  121  130 1   
   130  122  124 ar  
   131  122  131 1   
   132  123  124 ar  
   133  123  132 1   
   134  124  133 1   
   135  134  135 1   
   136  134  140 1   
   137  135  136 1   
   138  135  138 1   
   139  135  141 1   
   140  136  137 2   
   141  136  148 1   
   142  138  139 1   
   143  138  142 1   
   144  138  143 1   
   145  139  140 1   
   146  139  144 1   
   147  139  145 1   
   148  140  146 1   
   149  140  147 1   
   150  148  149 1   
   151  148  157 1   
   152  149  150 1   
   153  149  152 1   
   154  149  158 1   
   155  150  151 2   
   156  150  163 1   
   157  152  153 1   
   158  152  159 1   
   159  152  160 1   
   160  153  154 1   
   161  153  161 1   
   162  153  162 1   
   163  154  155 1   
   164  154  156 1   
   165  163  164 1   
   166  163  168 1   
   167  164  165 1   
   168  164  166 1   
   169  164  167 1   
   170  170  171 1   
   171  170  172 1   
   172  173  174 1   
   173  173  175 1   
@<TRIPOS>SUBSTRUCTURE
     1 MOL         1 TEMP              0 ****  ****    0 ROOT
