@<TRIPOS>MOLECULE
MOL
  189   185     1     0     0
SMALL
resp


@<TRIPOS>ATOM
      1 C1          0.2450    3.2340    5.4500 c3        1 MOL     -0.386494
      2 C2         -0.2060    3.1090    3.9980 c         1 MOL      0.796438
      3 O1          0.5740    3.2850    3.0310 o         1 MOL     -0.620077
      4 H1          1.0670    3.9470    5.5140 hc        1 MOL      0.097625
      5 H2         -0.5870    3.5840    6.0600 hc        1 MOL      0.097625
      6 H3          0.5790    2.2610    5.8120 hc        1 MOL      0.097625
      7 N1         -1.3990    2.5420    3.7330 n         1 MOL     -0.722861
      8 C3         -1.8850    2.1120    2.4140 c3        1 MOL      0.216926
      9 C4         -2.1280    3.3810    1.5470 c         1 MOL      0.358843
     10 O2         -2.8850    4.2950    1.8990 o         1 MOL     -0.568705
     11 C5         -3.2500    1.5710    2.6090 c3        1 MOL     -0.348253
     12 C6         -3.9070    1.1830    1.2320 c         1 MOL      0.753127
     13 O3         -3.1560    0.9720    0.2480 o         1 MOL     -0.669088
     14 O4         -5.1360    0.9040    1.1910 o         1 MOL     -0.669088
     15 H4         -1.9420    2.3560    4.5690 hn        1 MOL      0.364170
     16 H5         -1.1600    1.4760    1.8950 h1        1 MOL      0.066250
     17 H6         -3.9200    2.2870    3.0910 hc        1 MOL      0.097441
     18 H7         -3.1530    0.7540    3.3180 hc        1 MOL      0.097441
     19 N2         -1.5060    3.5410    0.4080 n         1 MOL      0.012149
     20 C7         -1.5460    4.7650   -0.5050 c3        1 MOL     -0.048613
     21 C8         -2.6530    4.6950   -1.5800 c         1 MOL      0.475809
     22 O5         -3.1280    5.7690   -1.9280 o         1 MOL     -0.579438
     23 C9         -0.2010    5.1580   -1.0050 c3        1 MOL      0.069711
     24 C10         0.9390    5.4280    0.0370 c3        1 MOL      0.103937
     25 C11         0.5200    6.4000    1.1670 c3        1 MOL     -0.127397
     26 C12         1.4250    6.3490    2.3350 c3        1 MOL      0.071154
     27 N3          0.9730    7.3410    3.3370 n4        1 MOL     -0.205808
     28 H8         -0.9990    2.7010    0.1700 hn        1 MOL      0.063808
     29 H9         -1.9360    5.5530    0.1370 h1        1 MOL      0.062485
     30 H10        -0.2500    6.0890   -1.5700 hc        1 MOL     -0.008365
     31 H11         0.1360    4.3800   -1.6950 hc        1 MOL     -0.008365
     32 H12         1.7240    5.8820   -0.5670 hc        1 MOL      0.005329
     33 H13         1.3260    4.5420    0.5500 hc        1 MOL      0.005329
     34 H14        -0.5050    6.2100    1.4850 hc        1 MOL      0.035244
     35 H15         0.4600    7.4310    0.8080 hc        1 MOL      0.035244
     36 H16         2.4680    6.5500    2.0800 hx        1 MOL      0.058381
     37 H17         1.2200    5.3670    2.7630 hx        1 MOL      0.058381
     38 H18         1.5020    8.1990    3.3950 hn        1 MOL      0.274537
     39 H19         0.0280    7.6100    3.1240 hn        1 MOL      0.274537
     40 H20         0.8930    6.9630    4.2730 hn        1 MOL      0.274537
     41 N4         -3.1170    3.5700   -2.0920 n         1 MOL     -0.168233
     42 C13        -4.1350    3.5150   -3.1050 c3        1 MOL     -0.007006
     43 C14        -5.4790    3.0620   -2.6170 c         1 MOL      0.382205
     44 O6         -6.4410    3.1840   -3.3800 o         1 MOL     -0.531702
     45 C15        -3.7130    2.5820   -4.2670 c3        1 MOL     -0.219029
     46 C16        -3.0660    1.2930   -3.8760 c         1 MOL      0.749337
     47 O7         -2.0010    0.9670   -4.4230 o         1 MOL     -0.676971
     48 O8         -3.5450    0.6040   -2.9100 o         1 MOL     -0.676971
     49 H21        -2.6060    2.7400   -1.8270 hn        1 MOL      0.115762
     50 H22        -4.1490    4.4740   -3.6230 h1        1 MOL      0.122946
     51 H23        -2.9780    3.0290   -4.9330 hc        1 MOL      0.063431
     52 H24        -4.5430    2.5390   -4.9670 hc        1 MOL      0.063431
     53 N5         -5.7080    2.5460   -1.4080 n         1 MOL     -0.191556
     54 C17        -7.0370    2.1760   -0.9040 c3        1 MOL     -0.084933
     55 C18        -7.4290    0.7140   -1.2320 c         1 MOL      0.447798
     56 O9         -8.6350    0.4820   -1.3760 o         1 MOL     -0.574774
     57 H25        -4.9980    2.3110   -0.7320 hn        1 MOL      0.157941
     58 H26        -7.7800    2.7920   -1.3990 h1        1 MOL      0.087967
     59 H27        -7.1920    2.3490    0.1570 h1        1 MOL      0.087967
     60 N6         -6.5200   -0.1960   -1.5670 n         1 MOL     -0.008829
     61 C19        -6.8950   -1.4650   -2.1520 c3        1 MOL     -0.160113
     62 C20        -7.2610   -2.4400   -0.9620 c         1 MOL      0.395258
     63 O10        -7.9110   -3.5120   -1.1520 o         1 MOL     -0.544064
     64 C21        -5.7840   -2.0760   -2.9830 c3        1 MOL     -0.054633
     65 C22        -4.4220   -2.2650   -2.2750 c         1 MOL      0.657536
     66 O11        -4.3090   -2.1150   -1.0030 o         1 MOL     -0.677819
     67 O12        -3.3920   -2.2950   -2.9760 o         1 MOL     -0.677819
     68 H28        -5.5530    0.0690   -1.5510 hn        1 MOL      0.105430
     69 H29        -7.7810   -1.3770   -2.7820 h1        1 MOL      0.144057
     70 H30        -5.5910   -1.4410   -3.8500 hc        1 MOL      0.043429
     71 H31        -6.0470   -3.0290   -3.4360 hc        1 MOL      0.043429
     72 N7         -6.9340   -2.0780    0.2870 n         1 MOL     -0.130604
     73 C23        -7.1950   -2.8030    1.5250 c3        1 MOL     -0.232054
     74 C24        -6.0000   -3.5520    2.0720 c         1 MOL      0.540794
     75 O13        -6.2080   -4.5340    2.7960 o         1 MOL     -0.570945
     76 H32        -6.5080   -1.1630    0.3290 hn        1 MOL      0.191635
     77 H33        -7.9130   -3.5680    1.2470 h1        1 MOL      0.119044
     78 H34        -7.6110   -2.1520    2.3030 h1        1 MOL      0.119044
     79 N8         -4.7890   -3.2600    1.6370 n         1 MOL     -0.263805
     80 C25        -3.5500   -4.0090    1.8760 c3        1 MOL     -0.256537
     81 C26        -2.3640   -3.1170    1.7280 c         1 MOL      0.700045
     82 O14        -2.4600   -2.0430    1.0820 o         1 MOL     -0.645078
     83 C27        -3.4680   -5.1990    0.8850 c3        1 MOL      0.527640
     84 C28        -4.5840   -6.1360    0.9620 c3        1 MOL     -0.673513
     85 O15        -3.4390   -4.6970   -0.4420 oh        1 MOL     -0.591807
     86 H35        -4.7210   -2.4610    1.0120 hn        1 MOL      0.249445
     87 H36        -3.5080   -4.3920    2.8990 h1        1 MOL      0.091965
     88 H37        -2.5270   -5.7150    1.0790 h1        1 MOL      0.001416
     89 H38        -4.0210   -3.9390   -0.3730 ho        1 MOL      0.356869
     90 H39        -5.5060   -5.8620    0.4520 hc        1 MOL      0.176598
     91 H40        -4.2480   -7.0830    0.5340 hc        1 MOL      0.176598
     92 H41        -4.8930   -6.3280    1.9930 hc        1 MOL      0.176598
     93 N9         -1.2020   -3.4240    2.2740 n         1 MOL     -0.512612
     94 C29         0.0550   -2.6910    2.2030 c3        1 MOL      0.151198
     95 C30         1.1160   -3.4750    1.4090 c         1 MOL      0.445058
     96 O16         1.2120   -4.7350    1.4560 o         1 MOL     -0.554782
     97 C31         0.6110   -2.3690    3.6520 c3        1 MOL      0.012389
     98 C32        -0.3570   -1.4910    4.4310 c3        1 MOL      0.033048
     99 C33         2.0890   -1.7870    3.6150 c3        1 MOL     -0.130602
    100 C34        -0.1650   -1.3980    5.9960 c3        1 MOL     -0.198963
    101 H42        -1.1460   -4.3290    2.7210 hn        1 MOL      0.255434
    102 H43        -0.1760   -1.7710    1.6730 h1        1 MOL      0.005240
    103 H44         0.7220   -3.3050    4.2020 hc        1 MOL      0.024963
    104 H45        -1.4090   -1.7320    4.3210 hc        1 MOL      0.040155
    105 H46        -0.2630   -0.4610    4.0670 hc        1 MOL      0.040155
    106 H47         2.4520   -1.5520    4.6120 hc        1 MOL      0.019219
    107 H48         2.7980   -2.4980    3.1930 hc        1 MOL      0.019219
    108 H49         2.1380   -0.8900    3.0000 hc        1 MOL      0.019219
    109 H50        -1.0150   -0.9130    6.4780 hc        1 MOL      0.047135
    110 H51        -0.1570   -2.4270    6.3480 hc        1 MOL      0.047135
    111 H52         0.8020   -0.9850    6.2970 hc        1 MOL      0.047135
    112 N10         1.8720   -2.7480    0.5660 n         1 MOL     -0.163676
    113 C35         3.1030   -3.2430   -0.1640 c3        1 MOL      0.047868
    114 C36         4.4140   -2.8410    0.5540 c         1 MOL      0.374416
    115 O17         4.4480   -2.0460    1.5020 o         1 MOL     -0.368212
    116 C37         3.2500   -2.7170   -1.5920 c3        1 MOL      0.064880
    117 C38         2.0500   -2.9450   -2.4920 c3        1 MOL     -0.337283
    118 O18         3.5960   -1.3200   -1.5930 oh        1 MOL     -0.370942
    119 H53         1.7530   -1.7470    0.6410 hn        1 MOL      0.251475
    120 H54         3.1660   -4.3240   -0.2540 h1        1 MOL      0.092193
    121 H55         4.1010   -3.3210   -1.9040 h1        1 MOL      0.020852
    122 H56         3.7730   -1.1330   -2.5190 ho        1 MOL      0.370183
    123 H57         2.1150   -2.4880   -3.4730 hc        1 MOL      0.098544
    124 H58         1.8370   -4.0210   -2.5620 hc        1 MOL      0.098544
    125 H59         1.1440   -2.5390   -2.0350 hc        1 MOL      0.098544
    126 N11         5.5670   -3.2060    0.0270 n         1 MOL     -0.421107
    127 C39         6.8740   -2.6510    0.3570 c3        1 MOL     -0.003972
    128 C40         7.1570   -1.1770    0.0780 c         1 MOL      0.270817
    129 O19         7.9310   -0.6250    0.8320 o         1 MOL     -0.516507
    130 C41         7.8700   -3.3530   -0.4890 c3        1 MOL      0.176672
    131 C42         7.9730   -4.8290   -0.2010 c3        1 MOL     -0.473616
    132 O20         7.5080   -3.2060   -1.8170 oh        1 MOL     -0.620393
    133 H60         5.5420   -3.8990   -0.7060 hn        1 MOL      0.312025
    134 H61         7.0570   -2.7050    1.4230 h1        1 MOL      0.142418
    135 H62         8.7900   -2.7950   -0.3310 h1        1 MOL      0.075108
    136 H63         8.1180   -3.6020   -2.4470 ho        1 MOL      0.418094
    137 H64         8.0760   -4.9410    0.8750 hc        1 MOL      0.142793
    138 H65         7.1570   -5.3860   -0.6690 hc        1 MOL      0.142793
    139 H66         8.8880   -5.2840   -0.5660 hc        1 MOL      0.142793
    140 N12         6.6560   -0.5780   -1.0000 n         1 MOL      0.041874
    141 C43         6.9120    0.8770   -1.2610 c3        1 MOL     -0.078885
    142 C44         5.8380    1.8460   -0.6650 c         1 MOL      0.382912
    143 O21         6.1770    3.0050   -0.5300 o         1 MOL     -0.506741
    144 C45         7.2630    1.1960   -2.7080 c3        1 MOL     -0.190970
    145 C46         8.4230    0.3670   -3.2990 c3        1 MOL     -0.059941
    146 C47         9.7950    0.6180   -2.7470 c3        1 MOL      0.107054
    147 C48        10.6360   -0.4630   -3.3190 c3        1 MOL      0.056390
    148 N13        12.0630   -0.1050   -3.1750 n4        1 MOL     -0.269081
    149 H67         5.9690   -1.0600   -1.5580 hn        1 MOL      0.105342
    150 H68         7.7570    1.1130   -0.6250 h1        1 MOL      0.099289
    151 H69         7.3970    2.2660   -2.8810 hc        1 MOL      0.096982
    152 H70         6.3980    0.9540   -3.3340 hc        1 MOL      0.096982
    153 H71         8.5230    0.7460   -4.3170 hc        1 MOL      0.019086
    154 H72         8.2390   -0.7010   -3.4300 hc        1 MOL      0.019086
    155 H73         9.7530    0.5180   -1.6630 hc        1 MOL      0.017470
    156 H74        10.1080    1.6130   -3.0430 hc        1 MOL      0.017470
    157 H75        10.3770   -0.6030   -4.3710 hx        1 MOL      0.058499
    158 H76        10.4800   -1.3880   -2.7680 hx        1 MOL      0.058499
    159 H77        12.6040   -0.9670   -3.2340 hn        1 MOL      0.274608
    160 H78        12.4720    0.5650   -3.8160 hn        1 MOL      0.274608
    161 H79        12.1890    0.3680   -2.2960 hn        1 MOL      0.274608
    162 N14         4.7440    1.3080   -0.1910 n         1 MOL     -0.098618
    163 C49         3.8240    2.0410    0.6290 c3        1 MOL     -0.002174
    164 C50         4.3820    2.0360    2.0510 c         1 MOL      0.437960
    165 O22         4.3980    3.0970    2.7580 o         1 MOL     -0.549355
    166 C51         2.4740    1.3310    0.5030 c3        1 MOL      0.018923
    167 C52         1.8270    1.5890   -0.8240 c3        1 MOL     -0.050632
    168 C53         0.4040    0.9840   -0.7730 c         1 MOL      0.506516
    169 O23        -0.5570    1.5700   -1.3200 o         1 MOL     -0.612865
    170 O24         0.1960   -0.1440   -0.2420 o         1 MOL     -0.612865
    171 H80         4.4130    0.3850   -0.4510 hn        1 MOL      0.040405
    172 H81         3.7100    3.0890    0.3360 h1        1 MOL      0.052597
    173 H82         1.8280    1.6950    1.3010 hc        1 MOL      0.020492
    174 H83         2.5610    0.2700    0.7330 hc        1 MOL      0.020492
    175 H84         2.3880    1.1400   -1.6370 hc        1 MOL     -0.010533
    176 H85         1.7760    2.6690   -0.9590 hc        1 MOL     -0.010533
    177 N15         5.0480    0.9170    2.4470 n         1 MOL     -0.115255
    178 C54         5.8030    0.8470    3.7170 c3        1 MOL     -0.283485
    179 H86         6.6390    1.5460    3.6820 h1        1 MOL      0.113179
    180 H87         5.1450    1.1080    4.5450 h1        1 MOL      0.113179
    181 H88         6.1820   -0.1650    3.8600 h1        1 MOL      0.113179
    182 H89         4.7380    0.0500    2.0340 hn        1 MOL      0.151530
    183 Ca1        -2.0630   -0.6340   -1.2560 Ca        1 MOL      1.601462
    184 O25        -0.5640   -0.9200   -3.4310 oh        1 MOL     -0.778323
    185 H90         0.3510   -0.6420   -3.5240 ho        1 MOL      0.376127
    186 H91        -1.0540   -0.2970   -3.9740 ho        1 MOL      0.376127
    187 O26        -1.1500   -3.2540   -1.2150 oh        1 MOL     -0.778323
    188 H92        -1.1100   -3.0990   -2.1650 ho        1 MOL      0.376127
    189 H93        -1.8570   -3.8800   -1.1080 ho        1 MOL      0.376127
@<TRIPOS>BOND
     1    1    2 1   
     2    1    4 1   
     3    1    5 1   
     4    1    6 1   
     5    2    3 2   
     6    2    7 1   
     7    7    8 1   
     8    7   15 1   
     9    8    9 1   
    10    8   11 1   
    11    8   16 1   
    12    9   10 2   
    13    9   19 1   
    14   11   12 1   
    15   11   17 1   
    16   11   18 1   
    17   12   13 1   
    18   12   14 1   
    19   19   20 1   
    20   19   28 1   
    21   20   21 1   
    22   20   23 1   
    23   20   29 1   
    24   21   22 2   
    25   21   41 1   
    26   23   24 1   
    27   23   30 1   
    28   23   31 1   
    29   24   25 1   
    30   24   32 1   
    31   24   33 1   
    32   25   26 1   
    33   25   34 1   
    34   25   35 1   
    35   26   27 1   
    36   26   36 1   
    37   26   37 1   
    38   27   38 1   
    39   27   39 1   
    40   27   40 1   
    41   41   42 1   
    42   41   49 1   
    43   42   43 1   
    44   42   45 1   
    45   42   50 1   
    46   43   44 2   
    47   43   53 1   
    48   45   46 1   
    49   45   51 1   
    50   45   52 1   
    51   46   47 1   
    52   46   48 1   
    53   53   54 1   
    54   53   57 1   
    55   54   55 1   
    56   54   58 1   
    57   54   59 1   
    58   55   56 2   
    59   55   60 1   
    60   60   61 1   
    61   60   68 1   
    62   61   62 1   
    63   61   64 1   
    64   61   69 1   
    65   62   63 2   
    66   62   72 1   
    67   64   65 1   
    68   64   70 1   
    69   64   71 1   
    70   65   66 1   
    71   65   67 1   
    72   72   73 1   
    73   72   76 1   
    74   73   74 1   
    75   73   77 1   
    76   73   78 1   
    77   74   75 2   
    78   74   79 1   
    79   79   80 1   
    80   79   86 1   
    81   80   81 1   
    82   80   83 1   
    83   80   87 1   
    84   81   82 2   
    85   81   93 1   
    86   83   84 1   
    87   83   85 1   
    88   83   88 1   
    89   84   90 1   
    90   84   91 1   
    91   84   92 1   
    92   85   89 1   
    93   93   94 1   
    94   93  101 1   
    95   94   95 1   
    96   94   97 1   
    97   94  102 1   
    98   95   96 2   
    99   95  112 1   
   100   97   98 1   
   101   97   99 1   
   102   97  103 1   
   103   98  100 1   
   104   98  104 1   
   105   98  105 1   
   106   99  106 1   
   107   99  107 1   
   108   99  108 1   
   109  100  109 1   
   110  100  110 1   
   111  100  111 1   
   112  112  113 1   
   113  112  119 1   
   114  113  114 1   
   115  113  116 1   
   116  113  120 1   
   117  114  115 2   
   118  114  126 1   
   119  116  117 1   
   120  116  118 1   
   121  116  121 1   
   122  117  123 1   
   123  117  124 1   
   124  117  125 1   
   125  118  122 1   
   126  126  127 1   
   127  126  133 1   
   128  127  128 1   
   129  127  130 1   
   130  127  134 1   
   131  128  129 2   
   132  128  140 1   
   133  130  131 1   
   134  130  132 1   
   135  130  135 1   
   136  131  137 1   
   137  131  138 1   
   138  131  139 1   
   139  132  136 1   
   140  140  141 1   
   141  140  149 1   
   142  141  142 1   
   143  141  144 1   
   144  141  150 1   
   145  142  143 2   
   146  142  162 1   
   147  144  145 1   
   148  144  151 1   
   149  144  152 1   
   150  145  146 1   
   151  145  153 1   
   152  145  154 1   
   153  146  147 1   
   154  146  155 1   
   155  146  156 1   
   156  147  148 1   
   157  147  157 1   
   158  147  158 1   
   159  148  159 1   
   160  148  160 1   
   161  148  161 1   
   162  162  163 1   
   163  162  171 1   
   164  163  164 1   
   165  163  166 1   
   166  163  172 1   
   167  164  165 2   
   168  164  177 1   
   169  166  167 1   
   170  166  173 1   
   171  166  174 1   
   172  167  168 1   
   173  167  175 1   
   174  167  176 1   
   175  168  169 1   
   176  168  170 1   
   177  177  178 1   
   178  177  182 1   
   179  178  179 1   
   180  178  180 1   
   181  178  181 1   
   182  184  185 1   
   183  184  186 1   
   184  187  188 1   
   185  187  189 1   
@<TRIPOS>SUBSTRUCTURE
     1 MOL         1 TEMP              0 ****  ****    0 ROOT
