@<TRIPOS>MOLECULE
MOL
  182   178     1     0     0
SMALL
resp


@<TRIPOS>ATOM
      1 C1          2.4450    2.1430    5.8410 c3        1 MOL     -0.337409
      2 C2          1.8520    2.0040    4.4290 c         1 MOL      0.801662
      3 O1          2.6140    1.8920    3.4880 o         1 MOL     -0.651306
      4 H1          1.6630    2.4550    6.5330 hc        1 MOL      0.086216
      5 H2          2.8510    1.1830    6.1610 hc        1 MOL      0.086216
      6 H3          3.2400    2.8890    5.8300 hc        1 MOL      0.086216
      7 N1          0.5610    2.0950    4.2230 n         1 MOL     -0.605615
      8 C3         -0.0850    2.1150    2.8870 c3        1 MOL      0.035140
      9 C4          0.1560    3.4760    2.2410 c         1 MOL      0.469803
     10 O2         -0.0280    4.5420    2.8770 o         1 MOL     -0.568753
     11 C5         -1.6160    1.7070    3.0210 c3        1 MOL      0.009799
     12 C6         -2.3310    1.7680    1.7320 c         1 MOL      0.762135
     13 O3         -1.7110    1.7520    0.6240 o         1 MOL     -0.706185
     14 O4         -3.5540    2.0350    1.8030 o         1 MOL     -0.706185
     15 H4          0.0080    2.4270    5.0000 hn        1 MOL      0.330671
     16 H5          0.3470    1.3140    2.2810 h1        1 MOL     -0.051511
     17 H6         -2.1610    2.3510    3.7060 hc        1 MOL      0.016310
     18 H7         -1.6940    0.7300    3.4890 hc        1 MOL      0.016310
     19 N2          0.6180    3.5440    0.9810 n         1 MOL      0.091059
     20 C7          1.0870    4.7980    0.3470 c3        1 MOL     -0.136039
     21 C8          0.1810    5.4150   -0.7260 c         1 MOL      0.392275
     22 O5          0.0320    6.6200   -0.6960 o         1 MOL     -0.535895
     23 C9          2.4850    4.5320   -0.1900 c3        1 MOL     -0.177267
     24 C10         3.4960    4.5810    0.9880 c3        1 MOL      0.141099
     25 C11         4.8970    4.5990    0.4420 c3        1 MOL      0.012229
     26 C12         5.3060    5.7910   -0.3500 c3        1 MOL      0.099640
     27 N3          5.3270    7.0340    0.4100 n4        1 MOL     -0.481481
     28 H8          0.5800    2.7010    0.4280 hn        1 MOL      0.021911
     29 H9          1.2090    5.5540    1.1250 h1        1 MOL      0.091647
     30 H10         2.7860    5.2380   -0.9630 hc        1 MOL      0.058354
     31 H11         2.5480    3.5390   -0.6310 hc        1 MOL      0.058354
     32 H12         3.3550    3.6320    1.5050 hc        1 MOL     -0.020970
     33 H13         3.4010    5.4220    1.6810 hc        1 MOL     -0.020970
     34 H14         5.0190    3.6680   -0.1000 hc        1 MOL      0.015377
     35 H15         5.6370    4.5150    1.2470 hc        1 MOL      0.015377
     36 H16         4.6200    5.8360   -1.2010 hx        1 MOL      0.061169
     37 H17         6.2830    5.6370   -0.8110 hx        1 MOL      0.061169
     38 H18         4.4470    7.2050    0.8790 hn        1 MOL      0.357407
     39 H19         6.1200    7.0190    1.0230 hn        1 MOL      0.357407
     40 H20         5.3450    7.8510   -0.1970 hn        1 MOL      0.357407
     41 N4         -0.5060    4.5870   -1.5000 n         1 MOL     -0.191044
     42 C13        -1.5820    5.0980   -2.3530 c3        1 MOL     -0.093112
     43 C14        -2.9570    5.0630   -1.6300 c         1 MOL      0.416969
     44 O6         -3.8710    5.6540   -2.1810 o         1 MOL     -0.522474
     45 C15        -1.6680    4.3240   -3.6660 c3        1 MOL     -0.020109
     46 C16        -2.0930    2.8420   -3.6500 c         1 MOL      0.761104
     47 O7         -2.4670    2.3380   -4.7440 o         1 MOL     -0.730212
     48 O8         -2.1890    2.1490   -2.6190 o         1 MOL     -0.730212
     49 H21        -0.3260    3.5910   -1.4980 hn        1 MOL      0.130252
     50 H22        -1.2940    6.0960   -2.6790 h1        1 MOL      0.126380
     51 H23        -0.7340    4.4380   -4.2220 hc        1 MOL      0.015693
     52 H24        -2.3510    4.8520   -4.3280 hc        1 MOL      0.015693
     53 N5         -3.0960    4.5790   -0.4220 n         1 MOL     -0.011789
     54 C17        -4.2450    4.7220    0.4820 c3        1 MOL     -0.191671
     55 C18        -5.5010    3.9980   -0.0830 c         1 MOL      0.539622
     56 O9         -6.5510    4.5460   -0.4500 o         1 MOL     -0.551335
     57 H25        -2.3030    4.1110   -0.0110 hn        1 MOL      0.126675
     58 H26        -4.3880    5.7820    0.7060 h1        1 MOL      0.092495
     59 H27        -4.0780    4.2630    1.4470 h1        1 MOL      0.092495
     60 N6         -5.3530    2.6720   -0.1430 n         1 MOL     -0.222476
     61 C19        -6.2820    1.6640   -0.7040 c3        1 MOL      0.036994
     62 C20        -6.8210    0.5250    0.2240 c         1 MOL      0.368816
     63 O10        -7.7500   -0.2210   -0.1750 o         1 MOL     -0.474050
     64 C21        -5.6260    1.1880   -2.0050 c3        1 MOL     -0.279163
     65 C22        -4.7240    0.0120   -1.8890 c         1 MOL      0.564856
     66 N7         -4.8650   -0.9650   -2.7110 n         1 MOL     -0.584008
     67 O11        -3.7630    0.0150   -1.0990 o         1 MOL     -0.576486
     68 H28        -4.4580    2.2570    0.0910 hn        1 MOL      0.060317
     69 H29        -7.2110    2.1990   -0.9110 h1        1 MOL      0.102576
     70 H30        -5.0770    2.0080   -2.4630 hc        1 MOL      0.124651
     71 H31        -6.4060    0.8300   -2.6760 hc        1 MOL      0.124651
     72 H32        -5.5440   -0.8800   -3.4690 hn        1 MOL      0.311528
     73 H33        -4.1560   -1.6850   -2.6900 hn        1 MOL      0.311528
     74 N8         -6.2250    0.3520    1.4420 n         1 MOL     -0.299877
     75 C23        -6.4730   -0.7100    2.4210 c3        1 MOL     -0.014866
     76 C24        -5.6440   -2.0250    2.3070 c         1 MOL      0.376329
     77 O12        -5.9940   -3.0260    2.9250 o         1 MOL     -0.512132
     78 H34        -5.5200    1.0610    1.5740 hn        1 MOL      0.252535
     79 H35        -7.5310   -0.9460    2.5420 h1        1 MOL      0.083783
     80 H36        -6.2490   -0.3190    3.4140 h1        1 MOL      0.083783
     81 N9         -4.6090   -1.9960    1.4180 n         1 MOL     -0.082374
     82 C25        -3.6000   -3.0900    1.2210 c3        1 MOL      0.151131
     83 C26        -2.1580   -2.4130    1.2760 c         1 MOL      0.317475
     84 O13        -1.9100   -1.3450    0.6990 o         1 MOL     -0.536600
     85 C27        -3.7160   -3.7490   -0.1640 c3        1 MOL      0.144601
     86 C28        -4.9170   -4.6210   -0.3160 ca        1 MOL     -0.401099
     87 C29        -6.2020   -4.0690   -0.7500 ca        1 MOL      0.118671
     88 C30        -4.8480   -5.9830    0.0080 ca        1 MOL      0.118671
     89 C31        -7.3460   -4.8780   -0.7850 ca        1 MOL     -0.428979
     90 C32        -5.9890   -6.8350   -0.0660 ca        1 MOL     -0.428979
     91 C33        -7.2770   -6.2170   -0.4120 ca        1 MOL      0.479620
     92 O14        -8.3780   -6.9370   -0.6890 oh        1 MOL     -0.454822
     93 H37        -4.4360   -1.0800    1.0100 hn        1 MOL      0.104059
     94 H38        -3.6880   -3.7340    2.0930 h1        1 MOL      0.030914
     95 H39        -2.8270   -4.3670   -0.3510 hc        1 MOL      0.030642
     96 H40        -3.7350   -3.0130   -0.9580 hc        1 MOL      0.030642
     97 H41        -6.1750   -3.0600   -1.1230 ha        1 MOL      0.057581
     98 H42        -3.9680   -6.4180    0.4560 ha        1 MOL      0.057581
     99 H43        -8.2890   -4.4560   -1.0980 ha        1 MOL      0.182650
    100 H44        -5.8990   -7.9060    0.0380 ha        1 MOL      0.182650
    101 H45        -8.1990   -7.8520   -0.4480 ho        1 MOL      0.327893
    102 N10        -1.1720   -3.0100    2.0040 n         1 MOL     -0.413923
    103 C34         0.2290   -2.6490    1.9540 c3        1 MOL      0.283005
    104 C35         0.9750   -3.6860    1.1900 c         1 MOL      0.423659
    105 O15         0.6500   -4.8860    1.2280 o         1 MOL     -0.568661
    106 C36         0.9470   -2.3030    3.3340 c3        1 MOL      0.022051
    107 C37         0.0640   -1.4990    4.2950 c3        1 MOL      0.408788
    108 C38         2.2540   -1.5910    2.9480 c3        1 MOL     -0.375819
    109 C39         0.1500   -1.9680    5.6690 c3        1 MOL     -0.297928
    110 H46        -1.4450   -3.7380    2.6480 hn        1 MOL      0.259561
    111 H47         0.3300   -1.7330    1.3760 h1        1 MOL      0.006621
    112 H48         1.2300   -3.2830    3.7410 hc        1 MOL     -0.006494
    113 H49        -0.9900   -1.6510    4.0430 hc        1 MOL     -0.087875
    114 H50         0.2250   -0.4310    4.2730 hc        1 MOL     -0.087875
    115 H51         2.1370   -0.9360    2.0870 hc        1 MOL      0.083985
    116 H52         2.5570   -1.0100    3.8220 hc        1 MOL      0.083985
    117 H53         3.0770   -2.2560    2.6710 hc        1 MOL      0.083985
    118 H54         0.0420   -3.0470    5.7390 hc        1 MOL      0.051274
    119 H55         1.0850   -1.6680    6.1610 hc        1 MOL      0.051274
    120 H56        -0.5700   -1.5040    6.3390 hc        1 MOL      0.051274
    121 N11         1.8760   -3.1990    0.2810 n         1 MOL     -0.051065
    122 C40         2.7650   -3.9530   -0.6200 c3        1 MOL      0.029444
    123 C41         4.2390   -3.8990   -0.2390 c         1 MOL      0.285931
    124 O16         4.6740   -2.9280    0.4190 o         1 MOL     -0.335632
    125 C42         2.5990   -3.3980   -2.0830 c3        1 MOL      0.228064
    126 O17         3.2290   -4.0900   -3.1070 oh        1 MOL     -0.636309
    127 H57         1.9070   -2.2060    0.1540 hn        1 MOL     -0.085316
    128 H58         2.4450   -4.9990   -0.6420 h1        1 MOL      0.063776
    129 H59         3.0630   -2.4190   -2.0170 h1        1 MOL     -0.003517
    130 H60         1.5310   -3.3040   -2.2990 h1        1 MOL     -0.003517
    131 H61         3.2300   -3.5360   -3.8920 ho        1 MOL      0.405680
    132 N12         5.0350   -4.8520   -0.6750 n         1 MOL     -0.365693
    133 C43         6.4610   -4.8470   -0.3440 c3        1 MOL      0.168447
    134 C44         7.1470   -3.6820   -1.1290 c         1 MOL      0.341296
    135 O18         8.1920   -3.1620   -0.7000 o         1 MOL     -0.489670
    136 C45         7.0690   -6.1640   -0.5970 c3        1 MOL     -0.228214
    137 H62         4.6800   -5.6210   -1.2220 hn        1 MOL      0.304963
    138 H63         6.5620   -4.7170    0.7260 h1        1 MOL      0.084550
    139 H64         8.0600   -6.3120   -0.1780 hc        1 MOL      0.075074
    140 H65         6.4160   -6.9120   -0.1470 hc        1 MOL      0.075074
    141 H66         7.0090   -6.3470   -1.6740 hc        1 MOL      0.075074
    142 N13         6.6390   -3.2350   -2.3470 n         1 MOL     -0.280176
    143 C46         7.0410   -1.9260   -2.9480 c3        1 MOL      0.063134
    144 C47         6.7640   -0.6150   -2.1180 c         1 MOL      0.302086
    145 O19         7.3130    0.4190   -2.4880 o         1 MOL     -0.517163
    146 C48         6.3360   -1.9300   -4.3380 c3        1 MOL     -0.275809
    147 H67         5.9870   -3.7420   -2.9150 hn        1 MOL      0.220240
    148 H68         8.1030   -2.0430   -3.1780 h1        1 MOL      0.107378
    149 H69         5.2860   -2.2110   -4.2870 hc        1 MOL      0.081187
    150 H70         6.4850   -1.0200   -4.9320 hc        1 MOL      0.081187
    151 H71         6.7900   -2.7600   -4.8870 hc        1 MOL      0.081187
    152 N14         6.0240   -0.6970   -1.0410 n         1 MOL      0.054625
    153 C49         5.6700    0.4500   -0.1220 c3        1 MOL      0.014109
    154 C50         6.4480    0.4640    1.1860 c         1 MOL      0.423500
    155 O20         7.0980    1.4200    1.5300 o         1 MOL     -0.518120
    156 C51         4.1540    0.4770    0.1030 c3        1 MOL     -0.021010
    157 C52         3.3450    0.9050   -1.1520 c3        1 MOL     -0.159443
    158 C53         1.8270    0.8650   -0.9080 c         1 MOL      0.893506
    159 O21         1.2530   -0.1190   -0.3430 o         1 MOL     -0.711051
    160 O22         1.1180    1.7560   -1.3290 o         1 MOL     -0.711051
    161 H72         5.6010   -1.5960   -0.8790 hn        1 MOL      0.117980
    162 H73         6.0070    1.3790   -0.5760 h1        1 MOL      0.039592
    163 H74         3.7990    1.0540    0.9570 hc        1 MOL      0.058048
    164 H75         3.8990   -0.5730    0.2450 hc        1 MOL      0.058048
    165 H76         3.6970    0.2380   -1.9400 hc        1 MOL      0.002192
    166 H77         3.6690    1.9110   -1.4120 hc        1 MOL      0.002192
    167 N15         6.6090   -0.7270    1.7440 n         1 MOL     -0.144367
    168 C54         7.6070   -1.0480    2.7420 c3        1 MOL     -0.451063
    169 H78         8.5970   -1.0250    2.2860 h1        1 MOL      0.165482
    170 H79         7.5630   -0.3190    3.5490 h1        1 MOL      0.165482
    171 H80         7.4150   -2.0440    3.1400 h1        1 MOL      0.165482
    172 H81         6.0810   -1.4830    1.3340 hn        1 MOL      0.134310
    173 Ca1        -1.1080    0.2660   -1.3310 Ca        1 MOL      1.790216
    174 O23        -1.1120   -2.2190   -2.1640 oh        1 MOL     -0.877035
    175 H82        -0.7300   -2.1890   -3.0390 ho        1 MOL      0.413410
    176 H83        -1.2600   -3.1540   -2.0040 ho        1 MOL      0.413410
    177 O24         0.7250   -0.0770   -3.5640 oh        1 MOL     -0.877035
    178 H84         1.4050    0.4090   -4.0380 ho        1 MOL      0.413410
    179 H85         0.5710   -0.8550   -4.0920 ho        1 MOL      0.413410
    180 O25        -2.2320   -0.2160   -4.0400 oh        1 MOL     -0.877035
    181 H86        -2.2850    0.7300   -4.1480 ho        1 MOL      0.413410
    182 H87        -2.8030   -0.5690   -4.7200 ho        1 MOL      0.413410
@<TRIPOS>BOND
     1    1    2 1   
     2    1    4 1   
     3    1    5 1   
     4    1    6 1   
     5    2    3 2   
     6    2    7 1   
     7    7    8 1   
     8    7   15 1   
     9    8    9 1   
    10    8   11 1   
    11    8   16 1   
    12    9   10 2   
    13    9   19 1   
    14   11   12 1   
    15   11   17 1   
    16   11   18 1   
    17   12   13 1   
    18   12   14 1   
    19   19   20 1   
    20   19   28 1   
    21   20   21 1   
    22   20   23 1   
    23   20   29 1   
    24   21   22 2   
    25   21   41 1   
    26   23   24 1   
    27   23   30 1   
    28   23   31 1   
    29   24   25 1   
    30   24   32 1   
    31   24   33 1   
    32   25   26 1   
    33   25   34 1   
    34   25   35 1   
    35   26   27 1   
    36   26   36 1   
    37   26   37 1   
    38   27   38 1   
    39   27   39 1   
    40   27   40 1   
    41   41   42 1   
    42   41   49 1   
    43   42   43 1   
    44   42   45 1   
    45   42   50 1   
    46   43   44 2   
    47   43   53 1   
    48   45   46 1   
    49   45   51 1   
    50   45   52 1   
    51   46   47 1   
    52   46   48 1   
    53   53   54 1   
    54   53   57 1   
    55   54   55 1   
    56   54   58 1   
    57   54   59 1   
    58   55   56 2   
    59   55   60 1   
    60   60   61 1   
    61   60   68 1   
    62   61   62 1   
    63   61   64 1   
    64   61   69 1   
    65   62   63 2   
    66   62   74 1   
    67   64   65 1   
    68   64   70 1   
    69   64   71 1   
    70   65   66 1   
    71   65   67 2   
    72   66   72 1   
    73   66   73 1   
    74   74   75 1   
    75   74   78 1   
    76   75   76 1   
    77   75   79 1   
    78   75   80 1   
    79   76   77 2   
    80   76   81 1   
    81   81   82 1   
    82   81   93 1   
    83   82   83 1   
    84   82   85 1   
    85   82   94 1   
    86   83   84 2   
    87   83  102 1   
    88   85   86 1   
    89   85   95 1   
    90   85   96 1   
    91   86   87 ar  
    92   86   88 ar  
    93   87   89 ar  
    94   87   97 1   
    95   88   90 ar  
    96   88   98 1   
    97   89   91 ar  
    98   89   99 1   
    99   90   91 ar  
   100   90  100 1   
   101   91   92 1   
   102   92  101 1   
   103  102  103 1   
   104  102  110 1   
   105  103  104 1   
   106  103  106 1   
   107  103  111 1   
   108  104  105 2   
   109  104  121 1   
   110  106  107 1   
   111  106  108 1   
   112  106  112 1   
   113  107  109 1   
   114  107  113 1   
   115  107  114 1   
   116  108  115 1   
   117  108  116 1   
   118  108  117 1   
   119  109  118 1   
   120  109  119 1   
   121  109  120 1   
   122  121  122 1   
   123  121  127 1   
   124  122  123 1   
   125  122  125 1   
   126  122  128 1   
   127  123  124 2   
   128  123  132 1   
   129  125  126 1   
   130  125  129 1   
   131  125  130 1   
   132  126  131 1   
   133  132  133 1   
   134  132  137 1   
   135  133  134 1   
   136  133  136 1   
   137  133  138 1   
   138  134  135 2   
   139  134  142 1   
   140  136  139 1   
   141  136  140 1   
   142  136  141 1   
   143  142  143 1   
   144  142  147 1   
   145  143  144 1   
   146  143  146 1   
   147  143  148 1   
   148  144  145 2   
   149  144  152 1   
   150  146  149 1   
   151  146  150 1   
   152  146  151 1   
   153  152  153 1   
   154  152  161 1   
   155  153  154 1   
   156  153  156 1   
   157  153  162 1   
   158  154  155 2   
   159  154  167 1   
   160  156  157 1   
   161  156  163 1   
   162  156  164 1   
   163  157  158 1   
   164  157  165 1   
   165  157  166 1   
   166  158  159 1   
   167  158  160 1   
   168  167  168 1   
   169  167  172 1   
   170  168  169 1   
   171  168  170 1   
   172  168  171 1   
   173  174  175 1   
   174  174  176 1   
   175  177  178 1   
   176  177  179 1   
   177  180  181 1   
   178  180  182 1   
@<TRIPOS>SUBSTRUCTURE
     1 MOL         1 TEMP              0 ****  ****    0 ROOT
