@<TRIPOS>MOLECULE
MOL
  186   183     1     0     0
SMALL
resp


@<TRIPOS>ATOM
      1 C1          1.5790   -0.3900    6.3750 c3        1 MOL     -0.326728
      2 C2          1.7760   -1.1390    5.0870 c         1 MOL      0.721466
      3 O1          0.8890   -1.4970    4.3580 o         1 MOL     -0.572762
      4 H1          1.6350    0.6820    6.1830 hc        1 MOL      0.074115
      5 H2          0.6020   -0.6330    6.7920 hc        1 MOL      0.074115
      6 H3          2.3580   -0.6730    7.0830 hc        1 MOL      0.074115
      7 N1          2.9660   -1.5070    4.7080 n         1 MOL     -0.630771
      8 C3          3.3130   -1.8960    3.3070 c3        1 MOL      0.222588
      9 C4          3.1940   -3.4070    2.9760 c         1 MOL      0.495665
     10 O2          3.9110   -4.2320    3.5760 o         1 MOL     -0.561450
     11 C5          4.7530   -1.4520    2.9380 c3        1 MOL     -0.360542
     12 C6          5.1070   -1.7260    1.4230 c         1 MOL      0.789829
     13 O3          6.2110   -2.3080    1.2060 o         1 MOL     -0.663476
     14 O4          4.3650   -1.3330    0.5060 o         1 MOL     -0.663476
     15 H4          3.7470   -1.1480    5.2340 hn        1 MOL      0.301627
     16 H5          2.6130   -1.3210    2.7130 h1        1 MOL      0.062481
     17 H6          5.4350   -2.0720    3.5220 hc        1 MOL      0.059746
     18 H7          4.8580   -0.3920    3.1380 hc        1 MOL      0.059746
     19 N2          2.3870   -3.8020    1.9390 n         1 MOL     -0.045665
     20 C7          2.2200   -5.1920    1.5500 c3        1 MOL     -0.333977
     21 C8          2.8650   -5.5460    0.2450 c         1 MOL      0.603874
     22 O5          2.9590   -6.7500   -0.0670 o         1 MOL     -0.596090
     23 C9          0.7500   -5.7740    1.6500 c3        1 MOL      0.391398
     24 C10        -0.1670   -5.1130    0.6090 c3        1 MOL     -0.022008
     25 C11         0.1070   -5.7750    3.0780 c3        1 MOL     -0.337812
     26 C12        -1.5360   -5.7560    0.3800 c3        1 MOL     -0.214506
     27 H8          1.8110   -3.0720    1.5490 hn        1 MOL      0.047107
     28 H9          2.8000   -5.7540    2.2820 h1        1 MOL      0.115213
     29 H10         0.7630   -6.8090    1.3310 hc        1 MOL     -0.061660
     30 H11         0.3430   -5.0950   -0.3490 hc        1 MOL      0.052605
     31 H12        -0.3750   -4.0910    0.9260 hc        1 MOL      0.052605
     32 H13         0.8740   -6.0320    3.8040 hc        1 MOL      0.067935
     33 H14        -0.4310   -4.8700    3.3410 hc        1 MOL      0.067935
     34 H15        -0.5460   -6.6420    2.9440 hc        1 MOL      0.067935
     35 H16        -2.0300   -6.0970    1.2890 hc        1 MOL      0.043609
     36 H17        -2.1800   -5.0130   -0.0880 hc        1 MOL      0.043609
     37 H18        -1.3660   -6.5330   -0.3720 hc        1 MOL      0.043609
     38 N3          3.3030   -4.5340   -0.5320 n         1 MOL     -0.431798
     39 C13         3.6250   -4.7390   -1.9430 c3        1 MOL      0.152836
     40 C14         4.9520   -4.1920   -2.3770 c         1 MOL      0.396710
     41 O6          5.5610   -4.6710   -3.3300 o         1 MOL     -0.606418
     42 C15         2.4460   -4.2400   -2.7620 c3        1 MOL     -0.261724
     43 C16         2.0970   -2.7360   -2.5980 c         1 MOL      0.736741
     44 O7          2.8400   -1.9820   -1.9100 o         1 MOL     -0.689051
     45 O8          1.1440   -2.2860   -3.3020 o         1 MOL     -0.689051
     46 H19         3.2270   -3.5730   -0.2070 hn        1 MOL      0.229298
     47 H20         3.6770   -5.8070   -2.1620 h1        1 MOL      0.062249
     48 H21         1.5670   -4.7840   -2.4100 hc        1 MOL      0.073351
     49 H22         2.6720   -4.4200   -3.8110 hc        1 MOL      0.073351
     50 N4          5.5650   -3.2340   -1.7380 n         1 MOL      0.145043
     51 C17         6.9210   -2.9310   -1.8910 c3        1 MOL     -0.387761
     52 C18         7.2740   -1.5750   -2.4800 c         1 MOL      0.624087
     53 O9          8.4080   -1.4120   -2.8430 o         1 MOL     -0.599710
     54 H23         5.0060   -2.8470   -0.9920 hn        1 MOL     -0.055842
     55 H24         7.4490   -3.6890   -2.4800 h1        1 MOL      0.141264
     56 H25         7.4360   -2.8800   -0.9280 h1        1 MOL      0.141264
     57 N5          6.2370   -0.7330   -2.7060 n         1 MOL     -0.297117
     58 C19         6.4190    0.6590   -3.1480 c3        1 MOL     -0.010774
     59 C20         6.4740    1.5600   -1.8900 c         1 MOL      0.434227
     60 O10         6.7860    2.7500   -1.9890 o         1 MOL     -0.573454
     61 C21         5.1830    1.0830   -3.9730 c3        1 MOL     -0.117704
     62 C22         3.8040    1.0260   -3.3150 c         1 MOL      0.844378
     63 O11         3.7170    1.2390   -2.0990 o         1 MOL     -0.728966
     64 O12         2.8140    0.8580   -3.9700 o         1 MOL     -0.728966
     65 H26         5.2900   -1.0640   -2.6010 hn        1 MOL      0.165689
     66 H27         7.3330    0.8050   -3.7170 h1        1 MOL      0.086411
     67 H28         5.1630    0.4320   -4.8350 hc        1 MOL      0.026775
     68 H29         5.2770    2.1050   -4.3540 hc        1 MOL      0.026775
     69 N6          6.2250    1.1140   -0.6590 n         1 MOL     -0.183264
     70 C23         6.3420    1.9270    0.5700 c3        1 MOL     -0.232503
     71 C24         5.4980    3.1630    0.6710 c         1 MOL      0.652951
     72 O13         5.6530    3.9120    1.5800 o         1 MOL     -0.647476
     73 H30         6.2150    0.1110   -0.5280 hn        1 MOL      0.188023
     74 H31         7.3950    2.2150    0.5960 h1        1 MOL      0.098282
     75 H32         6.0960    1.2240    1.3650 h1        1 MOL      0.098282
     76 N7          4.5060    3.3970   -0.1400 n         1 MOL     -0.250889
     77 C25         3.4100    4.3810    0.0750 c3        1 MOL      0.039911
     78 C26         2.0410    3.7100    0.2260 c         1 MOL      0.652729
     79 O14         1.8020    2.6270   -0.2910 o         1 MOL     -0.599145
     80 C27         3.4150    5.4800   -0.9920 c3        1 MOL     -0.503609
     81 C28         4.4500    6.6090   -0.6390 c3        1 MOL     -0.063503
     82 C29         4.2750    7.8500   -1.4670 c         1 MOL      0.615393
     83 N8          5.1200    8.8270   -1.1460 n         1 MOL     -0.792142
     84 O15         3.5080    7.9090   -2.4620 o         1 MOL     -0.543237
     85 H33         4.3330    2.6710   -0.8310 hn        1 MOL      0.161218
     86 H34         3.5320    4.9830    0.9770 h1        1 MOL      0.037315
     87 H35         2.4180    5.9120   -0.9870 hc        1 MOL      0.189958
     88 H36         3.6320    5.0000   -1.9420 hc        1 MOL      0.189958
     89 H37         5.4580    6.2310   -0.8120 hc        1 MOL      0.084678
     90 H38         4.3730    6.7500    0.4350 hc        1 MOL      0.084678
     91 H39         5.7880    8.8310   -0.3890 hn        1 MOL      0.344169
     92 H40         5.0750    9.6890   -1.6680 hn        1 MOL      0.344169
     93 N9          1.1820    4.2710    1.1050 n         1 MOL     -0.587686
     94 C30        -0.0320    3.5880    1.5080 c3        1 MOL     -0.001173
     95 C31        -1.0720    3.8040    0.4100 c         1 MOL      0.601822
     96 O16        -1.3050    4.9510    0.1430 o         1 MOL     -0.605266
     97 C32        -0.4420    3.9890    2.9310 c3        1 MOL      0.047495
     98 C33        -1.9160    3.8490    3.2840 c3        1 MOL     -0.171402
     99 C34         0.3280    3.1500    4.0030 c3        1 MOL     -0.171402
    100 H41         1.3380    5.2110    1.4470 hn        1 MOL      0.324752
    101 H42         0.2290    2.5310    1.5440 h1        1 MOL      0.162357
    102 H43        -0.1220    5.0020    3.1590 hc        1 MOL      0.017183
    103 H44        -2.1870    4.3970    4.1860 hc        1 MOL      0.040946
    104 H45        -2.4900    4.2820    2.4680 hc        1 MOL      0.040946
    105 H46        -2.1760    2.7960    3.3290 hc        1 MOL      0.040946
    106 H47         0.2630    3.6290    4.9850 hc        1 MOL      0.040946
    107 H48        -0.1150    2.1580    3.9330 hc        1 MOL      0.040946
    108 H49         1.3700    3.0480    3.6990 hc        1 MOL      0.040946
    109 N10        -1.8030    2.7680   -0.0310 n         1 MOL     -0.191496
    110 C35        -2.9900    2.8290   -0.9800 c3        1 MOL      0.009354
    111 C36        -4.2610    2.6020   -0.1780 c         1 MOL      0.523333
    112 O17        -4.1770    2.1210    0.9490 o         1 MOL     -0.523621
    113 C37        -2.6470    1.8730   -2.1740 c3        1 MOL     -0.151670
    114 C38        -3.0670    0.4070   -2.2020 c         1 MOL      0.720091
    115 N11        -2.1430   -0.4980   -2.2140 n         1 MOL     -0.768635
    116 O18        -4.2480    0.1220   -2.1090 o         1 MOL     -0.642695
    117 H50        -1.2930    1.9090    0.0990 hn        1 MOL      0.184260
    118 H51        -3.0370    3.8120   -1.4370 h1        1 MOL      0.047239
    119 H52        -1.5510    1.8760   -2.2500 hc        1 MOL      0.041039
    120 H53        -3.1170    2.2420   -3.0900 hc        1 MOL      0.041039
    121 H54        -1.2120   -0.1330   -2.0580 hn        1 MOL      0.401268
    122 H55        -2.3400   -1.4670   -2.0180 hn        1 MOL      0.401268
    123 N12        -5.4520    2.7540   -0.7670 n         1 MOL     -0.503403
    124 C39        -6.7640    2.5480   -0.1920 c3        1 MOL      0.072658
    125 C40        -7.0260    1.1310    0.4500 c         1 MOL      0.367190
    126 O19        -7.8330    1.0620    1.4100 o         1 MOL     -0.562060
    127 C41        -7.8580    2.8870   -1.2680 c3        1 MOL     -0.035362
    128 C42        -8.3550    1.7330   -2.1720 ca        1 MOL      0.044906
    129 C43        -9.5740    1.1780   -1.7820 ca        1 MOL     -0.178326
    130 C44        -7.5880    1.3410   -3.2960 ca        1 MOL     -0.178326
    131 C45        -9.9480    0.0940   -2.6110 ca        1 MOL     -0.312872
    132 C46        -7.9830    0.2210   -4.0300 ca        1 MOL     -0.312872
    133 C47        -9.1810   -0.3770   -3.7120 ca        1 MOL      0.360497
    134 O20        -9.6950   -1.3900   -4.4320 oh        1 MOL     -0.421433
    135 H56        -5.4260    3.0400   -1.7250 hn        1 MOL      0.280109
    136 H57        -6.8000    3.2500    0.6370 h1        1 MOL      0.084570
    137 H58        -7.5950    3.6910   -1.9530 hc        1 MOL      0.009734
    138 H59        -8.6760    3.2950   -0.6770 hc        1 MOL      0.009734
    139 H60       -10.2130    1.4230   -0.9470 ha        1 MOL      0.152799
    140 H61        -6.6030    1.7520   -3.4550 ha        1 MOL      0.152799
    141 H62       -10.8990   -0.3730   -2.4270 ha        1 MOL      0.168506
    142 H63        -7.2990   -0.1440   -4.7940 ha        1 MOL      0.168506
    143 H64       -10.5350   -1.6960   -4.0640 ho        1 MOL      0.313267
    144 N13        -6.3690    0.1070    0.0140 n         1 MOL     -0.217579
    145 C48        -6.4450   -1.2610    0.6350 c3        1 MOL      0.024529
    146 C49        -5.5290   -1.4100    1.9160 c         1 MOL      0.301067
    147 O21        -5.8220   -2.3900    2.6370 o         1 MOL     -0.546371
    148 C50        -6.0620   -2.2760   -0.4350 c3        1 MOL     -0.150858
    149 C51        -7.0250   -2.3690   -1.6290 c3        1 MOL     -0.146015
    150 C52        -6.7910   -3.5920   -2.5530 c         1 MOL      0.694466
    151 O22        -7.7910   -4.2750   -2.9250 o         1 MOL     -0.731983
    152 O23        -5.6690   -3.8390   -3.0870 o         1 MOL     -0.731983
    153 H65        -5.8470    0.1820   -0.8460 hn        1 MOL      0.378244
    154 H66        -7.4130   -1.6380    0.9700 h1        1 MOL      0.088399
    155 H67        -6.0580   -3.3020   -0.0720 hc        1 MOL      0.057119
    156 H68        -5.0490   -2.0730   -0.8000 hc        1 MOL      0.057119
    157 H69        -6.7820   -1.4780   -2.2160 hc        1 MOL      0.038984
    158 H70        -8.0820   -2.3740   -1.3580 hc        1 MOL      0.038984
    159 N14        -4.5060   -0.6000    2.1200 n         1 MOL     -0.109812
    160 C53        -3.5510   -0.5710    3.1960 c3        1 MOL     -0.151108
    161 C54        -3.9300    0.5800    4.1870 c         1 MOL      0.450997
    162 O24        -3.2080    0.7950    5.1270 o         1 MOL     -0.499857
    163 C55        -2.1540   -0.2800    2.6290 c3        1 MOL      0.343229
    164 C56        -1.6110   -1.2270    1.5660 c3        1 MOL     -0.471524
    165 C57        -0.2850   -0.7680    0.9670 c         1 MOL      0.769283
    166 O25         0.6920   -1.5630    0.9260 o         1 MOL     -0.769022
    167 O26        -0.0910    0.3480    0.4850 o         1 MOL     -0.769022
    168 H71        -4.4310    0.0560    1.3430 hn        1 MOL      0.133619
    169 H72        -3.5460   -1.5670    3.6550 h1        1 MOL      0.131330
    170 H73        -1.4270   -0.4310    3.4370 hc        1 MOL     -0.039306
    171 H74        -1.9890    0.7200    2.2230 hc        1 MOL     -0.039306
    172 H75        -2.2250   -1.3480    0.6790 hc        1 MOL      0.143112
    173 H76        -1.5110   -2.2250    1.9910 hc        1 MOL      0.143112
    174 N15        -5.1030    1.3840    4.0520 n         1 MOL     -0.251384
    175 C58        -5.3630    2.4670    5.0160 c3        1 MOL     -0.237781
    176 H77        -4.5100    3.1460    5.0380 h1        1 MOL      0.094790
    177 H78        -6.2550    3.0160    4.7150 h1        1 MOL      0.094790
    178 H79        -5.5140    2.0420    6.0080 h1        1 MOL      0.094790
    179 H80        -5.8100    1.1270    3.3770 hn        1 MOL      0.234684
    180 Ca1         2.3860   -0.0130   -0.3550 Ca        1 MOL      1.678677
    181 O27         2.5520    0.9930    2.1700 oh        1 MOL     -0.938665
    182 H81         3.1670    1.3160    2.8280 ho        1 MOL      0.456276
    183 H82         1.7110    0.9530    2.6270 ho        1 MOL      0.456276
    184 O28         0.6950    0.0520   -2.4330 oh        1 MOL     -0.938665
    185 H83         1.3990    0.5410   -2.8580 ho        1 MOL      0.456276
    186 H84         0.6990   -0.7990   -2.8610 ho        1 MOL      0.456276
@<TRIPOS>BOND
     1    1    2 1   
     2    1    4 1   
     3    1    5 1   
     4    1    6 1   
     5    2    3 2   
     6    2    7 1   
     7    7    8 1   
     8    7   15 1   
     9    8    9 1   
    10    8   11 1   
    11    8   16 1   
    12    9   10 2   
    13    9   19 1   
    14   11   12 1   
    15   11   17 1   
    16   11   18 1   
    17   12   13 1   
    18   12   14 1   
    19   19   20 1   
    20   19   27 1   
    21   20   21 1   
    22   20   23 1   
    23   20   28 1   
    24   21   22 2   
    25   21   38 1   
    26   23   24 1   
    27   23   25 1   
    28   23   29 1   
    29   24   26 1   
    30   24   30 1   
    31   24   31 1   
    32   25   32 1   
    33   25   33 1   
    34   25   34 1   
    35   26   35 1   
    36   26   36 1   
    37   26   37 1   
    38   38   39 1   
    39   38   46 1   
    40   39   40 1   
    41   39   42 1   
    42   39   47 1   
    43   40   41 2   
    44   40   50 1   
    45   42   43 1   
    46   42   48 1   
    47   42   49 1   
    48   43   44 1   
    49   43   45 1   
    50   50   51 1   
    51   50   54 1   
    52   51   52 1   
    53   51   55 1   
    54   51   56 1   
    55   52   53 2   
    56   52   57 1   
    57   57   58 1   
    58   57   65 1   
    59   58   59 1   
    60   58   61 1   
    61   58   66 1   
    62   59   60 2   
    63   59   69 1   
    64   61   62 1   
    65   61   67 1   
    66   61   68 1   
    67   62   63 1   
    68   62   64 1   
    69   69   70 1   
    70   69   73 1   
    71   70   71 1   
    72   70   74 1   
    73   70   75 1   
    74   71   72 2   
    75   71   76 1   
    76   76   77 1   
    77   76   85 1   
    78   77   78 1   
    79   77   80 1   
    80   77   86 1   
    81   78   79 2   
    82   78   93 1   
    83   80   81 1   
    84   80   87 1   
    85   80   88 1   
    86   81   82 1   
    87   81   89 1   
    88   81   90 1   
    89   82   83 1   
    90   82   84 2   
    91   83   91 1   
    92   83   92 1   
    93   93   94 1   
    94   93  100 1   
    95   94   95 1   
    96   94   97 1   
    97   94  101 1   
    98   95   96 2   
    99   95  109 1   
   100   97   98 1   
   101   97   99 1   
   102   97  102 1   
   103   98  103 1   
   104   98  104 1   
   105   98  105 1   
   106   99  106 1   
   107   99  107 1   
   108   99  108 1   
   109  109  110 1   
   110  109  117 1   
   111  110  111 1   
   112  110  113 1   
   113  110  118 1   
   114  111  112 2   
   115  111  123 1   
   116  113  114 1   
   117  113  119 1   
   118  113  120 1   
   119  114  115 1   
   120  114  116 2   
   121  115  121 1   
   122  115  122 1   
   123  123  124 1   
   124  123  135 1   
   125  124  125 1   
   126  124  127 1   
   127  124  136 1   
   128  125  126 2   
   129  125  144 1   
   130  127  128 1   
   131  127  137 1   
   132  127  138 1   
   133  128  129 ar  
   134  128  130 ar  
   135  129  131 ar  
   136  129  139 1   
   137  130  132 ar  
   138  130  140 1   
   139  131  133 ar  
   140  131  141 1   
   141  132  133 ar  
   142  132  142 1   
   143  133  134 1   
   144  134  143 1   
   145  144  145 1   
   146  144  153 1   
   147  145  146 1   
   148  145  148 1   
   149  145  154 1   
   150  146  147 2   
   151  146  159 1   
   152  148  149 1   
   153  148  155 1   
   154  148  156 1   
   155  149  150 1   
   156  149  157 1   
   157  149  158 1   
   158  150  151 1   
   159  150  152 1   
   160  159  160 1   
   161  159  168 1   
   162  160  161 1   
   163  160  163 1   
   164  160  169 1   
   165  161  162 2   
   166  161  174 1   
   167  163  164 1   
   168  163  170 1   
   169  163  171 1   
   170  164  165 1   
   171  164  172 1   
   172  164  173 1   
   173  165  166 1   
   174  165  167 1   
   175  174  175 1   
   176  174  179 1   
   177  175  176 1   
   178  175  177 1   
   179  175  178 1   
   180  181  182 1   
   181  181  183 1   
   182  184  185 1   
   183  184  186 1   
@<TRIPOS>SUBSTRUCTURE
     1 MOL         1 TEMP              0 ****  ****    0 ROOT
