@<TRIPOS>MOLECULE
MOL
  189   185     1     0     0
SMALL
resp


@<TRIPOS>ATOM
      1 C1         -0.1920    3.7480    5.4210 c3        1 MOL     -0.411696
      2 C2         -0.5860    3.2370    4.0650 c         1 MOL      0.867433
      3 O1          0.2570    3.2620    3.1390 o         1 MOL     -0.659392
      4 H1          0.7090    4.3550    5.3320 hc        1 MOL      0.096800
      5 H2         -0.9990    4.3550    5.8290 hc        1 MOL      0.096800
      6 H3          0.0030    2.9060    6.0850 hc        1 MOL      0.096800
      7 N1         -1.8570    2.8320    3.8790 n         1 MOL     -0.796540
      8 C3         -2.3070    2.4360    2.4920 c3        1 MOL      0.200409
      9 C4         -2.4710    3.6480    1.5760 c         1 MOL      0.490020
     10 O2         -3.0630    4.5920    2.0510 o         1 MOL     -0.558153
     11 C5         -3.5920    1.5980    2.6350 c3        1 MOL     -0.063326
     12 C6         -3.9910    0.8860    1.3040 c         1 MOL      0.584885
     13 O3         -5.1770    0.6870    1.1840 o         1 MOL     -0.624130
     14 O4         -3.1170    0.7400    0.4250 o         1 MOL     -0.624130
     15 H4         -2.4920    2.8760    4.6680 hn        1 MOL      0.380694
     16 H5         -1.5770    1.7630    2.0640 h1        1 MOL      0.024557
     17 H6         -4.3930    2.2620    2.9530 hc        1 MOL      0.020954
     18 H7         -3.5250    0.8350    3.4070 hc        1 MOL      0.020954
     19 N2         -2.0850    3.5440    0.2900 n         1 MOL     -0.303879
     20 C7         -2.0760    4.7350   -0.6230 c3        1 MOL      0.073192
     21 C8         -2.9590    4.5640   -1.8470 c         1 MOL      0.701634
     22 O5         -2.9150    5.4390   -2.6510 o         1 MOL     -0.599235
     23 C9         -0.6300    4.9660   -0.9520 c3        1 MOL     -0.034407
     24 C10         0.1330    5.7160    0.1540 c3        1 MOL      0.040721
     25 C11        -0.3110    7.2030    0.1630 c3        1 MOL     -0.242637
     26 C12         0.6440    8.0690    1.0050 c3        1 MOL     -0.011513
     27 N3          0.7970    7.6000    2.4410 n4        1 MOL     -0.371159
     28 H8         -1.8340    2.5940    0.0520 hn        1 MOL      0.237675
     29 H9         -2.5010    5.5820   -0.0930 h1        1 MOL     -0.011446
     30 H10        -0.5590    5.5590   -1.8660 hc        1 MOL      0.037116
     31 H11        -0.2050    3.9790   -1.1220 hc        1 MOL      0.037116
     32 H12         1.1800    5.7500   -0.1340 hc        1 MOL      0.030162
     33 H13         0.1110    5.1410    1.0820 hc        1 MOL      0.030162
     34 H14        -1.2860    7.3500    0.6390 hc        1 MOL      0.119661
     35 H15        -0.3710    7.6380   -0.8290 hc        1 MOL      0.119661
     36 H16         0.2930    9.1100    1.0130 hx        1 MOL      0.097322
     37 H17         1.6570    8.0700    0.5920 hx        1 MOL      0.097322
     38 H18        -0.1570    7.4170    2.7170 hn        1 MOL      0.330343
     39 H19         1.4430    6.8430    2.6290 hn        1 MOL      0.330343
     40 H20         1.2030    8.2970    3.0390 hn        1 MOL      0.330343
     41 N4         -3.6840    3.4760   -2.0180 n         1 MOL     -0.642598
     42 C13        -4.5450    3.1480   -3.2500 c3        1 MOL      0.266556
     43 C14        -5.8230    2.3070   -2.9310 c         1 MOL      0.340677
     44 O6         -6.6390    2.0810   -3.8390 o         1 MOL     -0.506153
     45 C15        -3.6890    2.5080   -4.3340 c3        1 MOL     -0.430791
     46 C16        -2.9820    1.2500   -3.8720 c         1 MOL      0.933359
     47 O7         -3.2630    0.6860   -2.7760 o         1 MOL     -0.735772
     48 O8         -2.0640    0.7450   -4.5690 o         1 MOL     -0.735772
     49 H21        -3.7330    2.8300   -1.2460 hn        1 MOL      0.266565
     50 H22        -5.0210    4.0590   -3.6200 h1        1 MOL      0.052829
     51 H23        -3.0540    3.3310   -4.6780 hc        1 MOL      0.113685
     52 H24        -4.3740    2.2920   -5.1540 hc        1 MOL      0.113685
     53 N5         -5.9860    1.7320   -1.7290 n         1 MOL     -0.155128
     54 C17        -7.3910    1.2610   -1.3340 c3        1 MOL     -0.350278
     55 C18        -7.6280   -0.2050   -1.5340 c         1 MOL      0.587474
     56 O9         -8.7800   -0.6810   -1.5570 o         1 MOL     -0.607064
     57 H25        -5.2390    1.7540   -1.0540 hn        1 MOL      0.196828
     58 H26        -8.0880    1.8320   -1.9470 h1        1 MOL      0.159581
     59 H27        -7.5760    1.4280   -0.2760 h1        1 MOL      0.159581
     60 N6         -6.6430   -1.0380   -1.7250 n         1 MOL     -0.200945
     61 C19        -6.8470   -2.5220   -1.6300 c3        1 MOL     -0.084862
     62 C20        -6.8850   -3.0220   -0.2130 c         1 MOL      0.448632
     63 O10        -7.3080   -4.1520    0.0360 o         1 MOL     -0.575567
     64 C21        -5.7220   -3.2040   -2.4160 c3        1 MOL     -0.258235
     65 C22        -4.3370   -2.5720   -2.1190 c         1 MOL      0.751190
     66 O11        -3.4840   -2.4410   -3.0640 o         1 MOL     -0.696676
     67 O12        -4.0400   -2.2370   -0.9820 o         1 MOL     -0.696676
     68 H28        -5.7850   -0.5770   -1.9830 hn        1 MOL      0.195586
     69 H29        -7.7830   -2.8030   -2.0950 h1        1 MOL      0.136882
     70 H30        -5.8960   -3.0940   -3.4820 hc        1 MOL      0.079954
     71 H31        -5.6180   -4.2840   -2.2940 hc        1 MOL      0.079954
     72 N7         -6.5390   -2.1890    0.7110 n         1 MOL     -0.095541
     73 C23        -6.5460   -2.5420    2.1180 c3        1 MOL     -0.225837
     74 C24        -5.2450   -3.3550    2.5590 c         1 MOL      0.575483
     75 O13        -5.3010   -3.9730    3.5630 o         1 MOL     -0.577104
     76 H32        -6.2140   -1.2860    0.4120 hn        1 MOL      0.153094
     77 H33        -7.3820   -3.1800    2.4150 h1        1 MOL      0.107034
     78 H34        -6.5770   -1.6050    2.6570 h1        1 MOL      0.107034
     79 N8         -4.2040   -3.3660    1.7540 n         1 MOL     -0.313960
     80 C25        -2.8760   -4.0110    2.1060 c3        1 MOL      0.041622
     81 C26        -1.6870   -3.0500    1.8480 c         1 MOL      0.548725
     82 O14        -1.8960   -2.1100    1.0920 o         1 MOL     -0.641003
     83 C27        -2.6250   -5.2900    1.3370 c3        1 MOL      0.257641
     84 C28        -3.7750   -6.2770    1.3730 c3        1 MOL     -0.374725
     85 O15        -2.2040   -5.1050   -0.0410 oh        1 MOL     -0.635521
     86 H35        -4.1900   -2.8530    0.8840 hn        1 MOL      0.297275
     87 H36        -2.7440   -4.2310    3.1720 h1        1 MOL      0.040999
     88 H37        -1.8520   -5.7690    1.9230 h1        1 MOL     -0.021122
     89 H38        -2.1110   -5.9380   -0.5060 ho        1 MOL      0.422347
     90 H39        -4.5040   -5.8470    0.6750 hc        1 MOL      0.115479
     91 H40        -3.4610   -7.2230    0.9240 hc        1 MOL      0.115479
     92 H41        -4.2260   -6.4980    2.3350 hc        1 MOL      0.115479
     93 N9         -0.5610   -3.2300    2.4280 n         1 MOL     -0.335285
     94 C29         0.5790   -2.4060    2.3540 c3        1 MOL      0.048563
     95 C30         1.7320   -3.1360    1.6020 c         1 MOL      0.288741
     96 O16         2.1660   -4.2180    2.0200 o         1 MOL     -0.502041
     97 C31         1.0620   -2.0760    3.7800 c3        1 MOL      0.237846
     98 C32         0.0820   -1.3190    4.6770 c3        1 MOL      0.049103
     99 C33         2.4570   -1.4520    3.8400 c3        1 MOL     -0.317757
    100 C34         0.3430   -1.3990    6.1900 c3        1 MOL     -0.287180
    101 H42        -0.4920   -4.0780    2.9640 hn        1 MOL      0.244194
    102 H43         0.3120   -1.5360    1.7640 h1        1 MOL      0.024328
    103 H44         1.1200   -3.0740    4.2120 hc        1 MOL     -0.033616
    104 H45        -0.8960   -1.7680    4.4770 hc        1 MOL      0.012840
    105 H46         0.0340   -0.2660    4.3950 hc        1 MOL      0.012840
    106 H47         2.7460   -1.2330    4.8740 hc        1 MOL      0.057614
    107 H48         3.2040   -2.0870    3.3700 hc        1 MOL      0.057614
    108 H49         2.4540   -0.4860    3.3430 hc        1 MOL      0.057614
    109 H50        -0.3850   -0.7780    6.7050 hc        1 MOL      0.072827
    110 H51         0.2120   -2.4010    6.5850 hc        1 MOL      0.072827
    111 H52         1.2710   -0.8910    6.4670 hc        1 MOL      0.072827
    112 N10         2.3120   -2.3790    0.6020 n         1 MOL     -0.173451
    113 C35         3.5740   -2.8390    0.0430 c3        1 MOL      0.130854
    114 C36         4.8100   -2.1130    0.5760 c         1 MOL      0.363398
    115 O17         4.6180   -1.1530    1.2570 o         1 MOL     -0.330324
    116 C37         3.5670   -2.6600   -1.4710 c3        1 MOL      0.022484
    117 C38         2.2950   -3.1640   -2.1790 c3        1 MOL     -0.071010
    118 O18         3.7140   -1.3580   -1.9300 oh        1 MOL     -0.339630
    119 H53         1.9040   -1.5120    0.2750 hn        1 MOL      0.403831
    120 H54         3.6870   -3.9140    0.1740 h1        1 MOL      0.034643
    121 H55         4.4400   -3.1440   -1.9230 h1        1 MOL     -0.051259
    122 H56         3.4420   -1.3360   -2.8550 ho        1 MOL      0.342834
    123 H57         2.3390   -2.9810   -3.2590 hc        1 MOL      0.008342
    124 H58         2.2180   -4.2480   -2.1050 hc        1 MOL      0.008342
    125 H59         1.4100   -2.6340   -1.8230 hc        1 MOL      0.008342
    126 N11         6.0450   -2.5070    0.2470 n         1 MOL     -0.354803
    127 C39         7.2890   -1.8640    0.7410 c3        1 MOL     -0.182719
    128 C40         7.3910   -0.4700    0.1960 c         1 MOL      0.429692
    129 O19         7.8170    0.3710    0.9820 o         1 MOL     -0.473814
    130 C41         8.4980   -2.7620    0.4190 c3        1 MOL      0.296230
    131 C42         8.4650   -4.0420    1.1490 c3        1 MOL     -0.336856
    132 O20         8.4590   -3.0970   -0.9620 oh        1 MOL     -0.645621
    133 H60         6.1560   -3.2520   -0.4300 hn        1 MOL      0.293741
    134 H61         7.2000   -1.7680    1.8270 h1        1 MOL      0.176937
    135 H62         9.4120   -2.2720    0.7220 h1        1 MOL      0.053393
    136 H63         9.1270   -3.7800   -1.0850 ho        1 MOL      0.396528
    137 H64         8.6740   -3.7630    2.1790 hc        1 MOL      0.099155
    138 H65         7.5610   -4.6090    0.9500 hc        1 MOL      0.099155
    139 H66         9.3260   -4.6270    0.8190 hc        1 MOL      0.099155
    140 N12         6.9420   -0.1740   -1.0310 n         1 MOL     -0.181207
    141 C43         6.8660    1.1990   -1.5360 c3        1 MOL     -0.143720
    142 C44         6.0680    2.1380   -0.6100 c         1 MOL      0.500842
    143 O21         6.4930    3.1960   -0.1750 o         1 MOL     -0.513077
    144 C45         6.1160    1.1400   -2.8970 c3        1 MOL      0.009954
    145 C46         6.9420    0.8040   -4.1790 c3        1 MOL     -0.146101
    146 C47         7.1280   -0.6790   -4.4750 c3        1 MOL      0.044564
    147 C48         8.0510   -0.9680   -5.5750 c3        1 MOL      0.024680
    148 N13         8.6770   -2.3040   -5.3080 n4        1 MOL     -0.263786
    149 H67         6.6810   -0.9690   -1.5940 hn        1 MOL      0.193475
    150 H68         7.8030    1.7300   -1.7430 h1        1 MOL      0.096279
    151 H69         5.6500    2.1080   -3.1060 hc        1 MOL      0.044120
    152 H70         5.2790    0.4480   -2.8760 hc        1 MOL      0.044120
    153 H71         7.9010    1.3080   -4.2330 hc        1 MOL      0.065091
    154 H72         6.3780    1.1880   -5.0330 hc        1 MOL      0.065091
    155 H73         6.1620   -1.1120   -4.7110 hc        1 MOL      0.006153
    156 H74         7.4480   -1.1380   -3.5440 hc        1 MOL      0.006153
    157 H75         8.7940   -0.1800   -5.6520 hx        1 MOL      0.082673
    158 H76         7.4800   -0.9190   -6.5020 hx        1 MOL      0.082673
    159 H77         9.4510   -2.5580   -5.9160 hn        1 MOL      0.262882
    160 H78         9.0490   -2.2690   -4.3690 hn        1 MOL      0.262882
    161 H79         8.0020   -3.0350   -5.4550 hn        1 MOL      0.262882
    162 N14         4.8730    1.7150   -0.2730 n         1 MOL     -0.217315
    163 C49         3.9220    2.3630    0.7060 c3        1 MOL     -0.060197
    164 C50         4.5130    2.5060    2.0780 c         1 MOL      0.485992
    165 O22         4.3600    3.5610    2.6690 o         1 MOL     -0.565068
    166 C51         2.5590    1.5800    0.7410 c3        1 MOL      0.260867
    167 C52         2.0360    1.3570   -0.6820 c3        1 MOL     -0.229162
    168 C53         0.6290    0.6830   -0.7900 c         1 MOL      0.582629
    169 O23         0.4040   -0.4420   -0.3070 o         1 MOL     -0.659252
    170 O24        -0.2940    1.3060   -1.3210 o         1 MOL     -0.659252
    171 H80         4.7070    0.7330   -0.4010 hn        1 MOL      0.017672
    172 H81         3.7340    3.4190    0.5090 h1        1 MOL      0.079816
    173 H82         1.8630    2.0330    1.4380 hc        1 MOL     -0.041476
    174 H83         2.7770    0.6190    1.2130 hc        1 MOL     -0.041476
    175 H84         2.7060    0.7060   -1.2400 hc        1 MOL      0.001179
    176 H85         2.0590    2.3860   -1.0520 hc        1 MOL      0.001179
    177 N15         5.1190    1.4630    2.6480 n         1 MOL     -0.055262
    178 C54         5.7140    1.5520    4.0130 c3        1 MOL     -0.409768
    179 H86         6.6070    2.1750    3.9790 h1        1 MOL      0.143447
    180 H87         4.9900    1.9930    4.6980 h1        1 MOL      0.143447
    181 H88         5.9820    0.5540    4.3600 h1        1 MOL      0.143447
    182 H89         5.2730    0.6880    2.0090 hn        1 MOL      0.118909
    183 Ca1        -1.9420   -0.7800   -1.1870 Ca        1 MOL      1.578435
    184 O25        -0.1680   -0.8320   -3.2790 oh        1 MOL     -0.691567
    185 H90         0.6690   -0.9560   -3.7160 ho        1 MOL      0.353860
    186 H91        -0.7180   -0.3860   -3.9220 ho        1 MOL      0.353860
    187 O26        -1.1330   -3.2760   -1.6180 oh        1 MOL     -0.691567
    188 H92        -0.7620   -3.8380   -2.3100 ho        1 MOL      0.353860
    189 H93        -1.3520   -3.8950   -0.9120 ho        1 MOL      0.353860
@<TRIPOS>BOND
     1    1    2 1   
     2    1    4 1   
     3    1    5 1   
     4    1    6 1   
     5    2    3 2   
     6    2    7 1   
     7    7    8 1   
     8    7   15 1   
     9    8    9 1   
    10    8   11 1   
    11    8   16 1   
    12    9   10 2   
    13    9   19 1   
    14   11   12 1   
    15   11   17 1   
    16   11   18 1   
    17   12   13 1   
    18   12   14 1   
    19   19   20 1   
    20   19   28 1   
    21   20   21 1   
    22   20   23 1   
    23   20   29 1   
    24   21   22 2   
    25   21   41 1   
    26   23   24 1   
    27   23   30 1   
    28   23   31 1   
    29   24   25 1   
    30   24   32 1   
    31   24   33 1   
    32   25   26 1   
    33   25   34 1   
    34   25   35 1   
    35   26   27 1   
    36   26   36 1   
    37   26   37 1   
    38   27   38 1   
    39   27   39 1   
    40   27   40 1   
    41   41   42 1   
    42   41   49 1   
    43   42   43 1   
    44   42   45 1   
    45   42   50 1   
    46   43   44 2   
    47   43   53 1   
    48   45   46 1   
    49   45   51 1   
    50   45   52 1   
    51   46   47 1   
    52   46   48 1   
    53   53   54 1   
    54   53   57 1   
    55   54   55 1   
    56   54   58 1   
    57   54   59 1   
    58   55   56 2   
    59   55   60 1   
    60   60   61 1   
    61   60   68 1   
    62   61   62 1   
    63   61   64 1   
    64   61   69 1   
    65   62   63 2   
    66   62   72 1   
    67   64   65 1   
    68   64   70 1   
    69   64   71 1   
    70   65   66 1   
    71   65   67 1   
    72   72   73 1   
    73   72   76 1   
    74   73   74 1   
    75   73   77 1   
    76   73   78 1   
    77   74   75 2   
    78   74   79 1   
    79   79   80 1   
    80   79   86 1   
    81   80   81 1   
    82   80   83 1   
    83   80   87 1   
    84   81   82 2   
    85   81   93 1   
    86   83   84 1   
    87   83   85 1   
    88   83   88 1   
    89   84   90 1   
    90   84   91 1   
    91   84   92 1   
    92   85   89 1   
    93   93   94 1   
    94   93  101 1   
    95   94   95 1   
    96   94   97 1   
    97   94  102 1   
    98   95   96 2   
    99   95  112 1   
   100   97   98 1   
   101   97   99 1   
   102   97  103 1   
   103   98  100 1   
   104   98  104 1   
   105   98  105 1   
   106   99  106 1   
   107   99  107 1   
   108   99  108 1   
   109  100  109 1   
   110  100  110 1   
   111  100  111 1   
   112  112  113 1   
   113  112  119 1   
   114  113  114 1   
   115  113  116 1   
   116  113  120 1   
   117  114  115 2   
   118  114  126 1   
   119  116  117 1   
   120  116  118 1   
   121  116  121 1   
   122  117  123 1   
   123  117  124 1   
   124  117  125 1   
   125  118  122 1   
   126  126  127 1   
   127  126  133 1   
   128  127  128 1   
   129  127  130 1   
   130  127  134 1   
   131  128  129 2   
   132  128  140 1   
   133  130  131 1   
   134  130  132 1   
   135  130  135 1   
   136  131  137 1   
   137  131  138 1   
   138  131  139 1   
   139  132  136 1   
   140  140  141 1   
   141  140  149 1   
   142  141  142 1   
   143  141  144 1   
   144  141  150 1   
   145  142  143 2   
   146  142  162 1   
   147  144  145 1   
   148  144  151 1   
   149  144  152 1   
   150  145  146 1   
   151  145  153 1   
   152  145  154 1   
   153  146  147 1   
   154  146  155 1   
   155  146  156 1   
   156  147  148 1   
   157  147  157 1   
   158  147  158 1   
   159  148  159 1   
   160  148  160 1   
   161  148  161 1   
   162  162  163 1   
   163  162  171 1   
   164  163  164 1   
   165  163  166 1   
   166  163  172 1   
   167  164  165 2   
   168  164  177 1   
   169  166  167 1   
   170  166  173 1   
   171  166  174 1   
   172  167  168 1   
   173  167  175 1   
   174  167  176 1   
   175  168  169 1   
   176  168  170 1   
   177  177  178 1   
   178  177  182 1   
   179  178  179 1   
   180  178  180 1   
   181  178  181 1   
   182  184  185 1   
   183  184  186 1   
   184  187  188 1   
   185  187  189 1   
@<TRIPOS>SUBSTRUCTURE
     1 MOL         1 TEMP              0 ****  ****    0 ROOT
