@<TRIPOS>MOLECULE
MOL
  179   176     1     0     0
SMALL
resp


@<TRIPOS>ATOM
      1 C1         -1.2590   -3.2160    5.9730 c3        1 MOL     -0.388412
      2 C2         -0.7940   -2.9820    4.5270 c         1 MOL      0.826188
      3 O1         -1.5730   -3.1480    3.6160 o         1 MOL     -0.627811
      4 H1         -1.2410   -4.2830    6.1910 hc        1 MOL      0.091834
      5 H2         -0.5900   -2.6940    6.6590 hc        1 MOL      0.091834
      6 H3         -2.2730   -2.8360    6.0950 hc        1 MOL      0.091834
      7 N1          0.4290   -2.5910    4.3740 n         1 MOL     -0.650953
      8 C3          0.9020   -2.4540    2.9760 c3        1 MOL     -0.002235
      9 C4          1.0370   -3.7760    2.3210 c         1 MOL      0.492766
     10 O2          1.5300   -4.7760    2.9080 o         1 MOL     -0.549083
     11 C5          2.2220   -1.6640    3.0090 c3        1 MOL     -0.102339
     12 C6          2.8440   -1.2900    1.6610 c         1 MOL      0.716685
     13 O3          2.3000   -1.6250    0.5810 o         1 MOL     -0.771121
     14 O4          3.8270   -0.4970    1.7730 o         1 MOL     -0.771121
     15 H4          0.9050   -2.1530    5.1550 hn        1 MOL      0.354547
     16 H5          0.1610   -1.8650    2.4290 h1        1 MOL      0.054318
     17 H6          3.0210   -2.2180    3.5000 hc        1 MOL      0.060260
     18 H7          2.0560   -0.7970    3.6490 hc        1 MOL      0.060260
     19 N2          0.7120   -3.8660    1.0300 n         1 MOL     -0.153670
     20 C7          0.7170   -5.1420    0.2460 c3        1 MOL     -0.106958
     21 C8          2.0820   -5.3750   -0.5840 c         1 MOL      0.383607
     22 O5          2.5050   -6.5560   -0.6130 o         1 MOL     -0.561568
     23 C9         -0.4550   -5.1910   -0.8070 c3        1 MOL     -0.037689
     24 C10        -1.8470   -5.1760   -0.1880 c3        1 MOL      0.049484
     25 C11        -2.8610   -5.1940   -1.3590 c3        1 MOL     -0.107109
     26 C12        -4.3040   -5.2850   -0.8680 c3        1 MOL      0.061865
     27 N3         -5.1890   -5.4140   -2.0250 n4        1 MOL     -0.276016
     28 H8          0.5650   -2.9750    0.6020 hn        1 MOL      0.167365
     29 H9          0.5940   -5.9680    0.9420 h1        1 MOL      0.123054
     30 H10        -0.4680   -6.0960   -1.4100 hc        1 MOL      0.026593
     31 H11        -0.2180   -4.3250   -1.4140 hc        1 MOL      0.026593
     32 H12        -1.9290   -4.2500    0.3830 hc        1 MOL      0.043477
     33 H13        -2.0770   -6.0180    0.4630 hc        1 MOL      0.043477
     34 H14        -2.6820   -6.0560   -1.9950 hc        1 MOL      0.022215
     35 H15        -2.6800   -4.3600   -2.0460 hc        1 MOL      0.022215
     36 H16        -4.5200   -4.4290   -0.2330 hx        1 MOL      0.087717
     37 H17        -4.4630   -6.1460   -0.2150 hx        1 MOL      0.087717
     38 H18        -5.3220   -4.5530   -2.5320 hn        1 MOL      0.302514
     39 H19        -4.7340   -5.9950   -2.7190 hn        1 MOL      0.302514
     40 H20        -6.0490   -5.9060   -1.8560 hn        1 MOL      0.302514
     41 N4          2.8120   -4.4410   -1.1280 n         1 MOL     -0.265182
     42 C13         4.1290   -4.5000   -1.8540 c3        1 MOL     -0.064593
     43 C14         5.3320   -4.0770   -0.9620 c         1 MOL      0.445300
     44 O6          6.3860   -3.9520   -1.5500 o         1 MOL     -0.500129
     45 C15         3.9880   -3.9040   -3.2690 c3        1 MOL     -0.060465
     46 C16         3.7740   -2.4100   -3.3300 c         1 MOL      0.653221
     47 O7          3.4610   -1.8530   -2.2420 o         1 MOL     -0.709031
     48 O8          3.8560   -1.7660   -4.4220 o         1 MOL     -0.709031
     49 H21         2.4070   -3.5310   -0.9770 hn        1 MOL      0.244506
     50 H22         4.3210   -5.5340   -2.1540 h1        1 MOL      0.113115
     51 H23         3.2510   -4.4600   -3.8470 hc        1 MOL      0.033656
     52 H24         4.9100   -4.1190   -3.8240 hc        1 MOL      0.033656
     53 N5          5.1000   -3.8570    0.3120 n         1 MOL     -0.245250
     54 C17         6.0370   -3.2100    1.2040 c3        1 MOL     -0.305239
     55 C18         6.6530   -1.8930    0.7030 c         1 MOL      0.576443
     56 O9          7.7620   -1.6120    1.1390 o         1 MOL     -0.557827
     57 H25         4.2070   -4.0650    0.7230 hn        1 MOL      0.287358
     58 H26         6.8940   -3.8700    1.3170 h1        1 MOL      0.138190
     59 H27         5.5780   -2.9040    2.1480 h1        1 MOL      0.138190
     60 N6          6.0520   -1.1840   -0.3280 n         1 MOL     -0.169906
     61 C19         6.6510    0.0710   -0.8950 c3        1 MOL     -0.369935
     62 C20         6.6000    1.3230   -0.0100 c         1 MOL      0.530641
     63 O10         7.1560    2.3510   -0.3200 o         1 MOL     -0.485927
     64 C21         6.1700    0.3340   -2.3350 c3        1 MOL     -0.065187
     65 C22         4.7960    0.9410   -2.4570 c         1 MOL      0.602111
     66 N7          4.6890    1.7400   -3.4260 n         1 MOL     -0.600515
     67 O11         3.8660    0.7740   -1.6490 o         1 MOL     -0.635805
     68 H28         5.1050   -1.4250   -0.5440 hn        1 MOL      0.264863
     69 H29         7.7070   -0.1920   -0.8990 h1        1 MOL      0.186463
     70 H30         6.3850   -0.4470   -3.0670 hc        1 MOL      0.083897
     71 H31         6.8430    1.1290   -2.6600 hc        1 MOL      0.083897
     72 H32         5.4570    1.9140   -4.0560 hn        1 MOL      0.313319
     73 H33         3.7950    2.1930   -3.6080 hn        1 MOL      0.313319
     74 N8          5.9500    1.2390    1.1700 n         1 MOL     -0.377277
     75 C23         5.8760    2.2900    2.1910 c3        1 MOL     -0.020435
     76 C24         4.5570    3.0100    2.2300 c         1 MOL      0.466282
     77 O12         4.3730    3.9090    3.0630 o         1 MOL     -0.572841
     78 H34         5.3150    0.4770    1.3280 hn        1 MOL      0.319312
     79 H35         6.6580    3.0470    2.1030 h1        1 MOL      0.089138
     80 H36         6.0710    1.9090    3.1950 h1        1 MOL      0.089138
     81 N9          3.6070    2.7590    1.2670 n         1 MOL     -0.156407
     82 C25         2.3600    3.5720    1.0520 c3        1 MOL      0.059552
     83 C26         1.1910    2.6310    0.8110 c         1 MOL      0.380708
     84 O13         1.3460    1.5520    0.2590 o         1 MOL     -0.511513
     85 C27         2.5170    4.3410   -0.2930 c3        1 MOL      0.188717
     86 C28         3.6730    5.2750   -0.3610 ca        1 MOL     -0.229220
     87 C29         4.9540    4.7000   -0.7020 ca        1 MOL      0.026027
     88 C30         3.5620    6.5810    0.1330 ca        1 MOL      0.026027
     89 C31         6.0890    5.5280   -0.8150 ca        1 MOL     -0.411026
     90 C32         4.7320    7.3850    0.1170 ca        1 MOL     -0.411026
     91 C33         5.9930    6.8080   -0.3350 ca        1 MOL      0.494575
     92 O14         7.0760    7.6600   -0.4660 oh        1 MOL     -0.489525
     93 H37         3.6700    1.9020    0.7400 hn        1 MOL      0.162920
     94 H38         2.1930    4.2090    1.9210 h1        1 MOL      0.054397
     95 H39         1.6280    4.9420   -0.4580 hc        1 MOL     -0.038923
     96 H40         2.5560    3.5860   -1.0840 hc        1 MOL     -0.038923
     97 H41         5.0210    3.6810   -1.0530 ha        1 MOL      0.079767
     98 H42         2.5770    6.9780    0.3450 ha        1 MOL      0.079767
     99 H43         6.9950    5.1090   -1.2310 ha        1 MOL      0.178463
    100 H44         4.6680    8.4030    0.4590 ha        1 MOL      0.178463
    101 H45         6.8200    8.4900   -0.0540 ho        1 MOL      0.329044
    102 N10        -0.0140    3.0910    1.2120 n         1 MOL     -0.377568
    103 C34        -1.3470    2.4510    0.9480 c3        1 MOL     -0.060794
    104 C35        -2.4740    3.3900    0.2830 c         1 MOL      0.489567
    105 O15        -2.7350    4.4530    0.6860 o         1 MOL     -0.514231
    106 C36        -1.9050    1.7340    2.2870 c3        1 MOL      0.039189
    107 C37        -2.2140    2.7470    3.3700 c3        1 MOL     -0.116874
    108 C38        -1.0540    0.5300    2.6290 c3        1 MOL     -0.094760
    109 C39        -2.6250    2.0410    4.7350 c3        1 MOL     -0.138652
    110 H46        -0.1000    3.9880    1.6560 hn        1 MOL      0.285759
    111 H47        -1.1910    1.5750    0.3260 h1        1 MOL      0.121686
    112 H48        -2.8700    1.3350    1.9770 hc        1 MOL     -0.026332
    113 H49        -3.0970    3.3320    3.1340 hc        1 MOL      0.063996
    114 H50        -1.3780    3.4250    3.5230 hc        1 MOL      0.063996
    115 H51        -1.0030   -0.1120    1.7540 hc        1 MOL      0.050930
    116 H52        -0.0430    0.8630    2.8520 hc        1 MOL      0.050930
    117 H53        -1.4510   -0.0120    3.4990 hc        1 MOL      0.050930
    118 H54        -1.7400    1.6260    5.2280 hc        1 MOL      0.039458
    119 H55        -2.9230    2.8420    5.3980 hc        1 MOL      0.039458
    120 H56        -3.4770    1.3600    4.6930 hc        1 MOL      0.039458
    121 N11        -3.2090    2.7350   -0.6050 n         1 MOL     -0.325266
    122 C40        -4.3690    3.3490   -1.3740 c3        1 MOL      0.186694
    123 C41        -5.7050    3.1120   -0.6530 c         1 MOL      0.342308
    124 O16        -5.8290    2.3260    0.3030 o         1 MOL     -0.289337
    125 C42        -4.4310    2.6840   -2.7270 c3        1 MOL     -0.346251
    126 O17        -4.9520    1.4000   -2.5240 oh        1 MOL     -0.179465
    127 H57        -2.9360    1.8200   -0.9140 hn        1 MOL      0.188419
    128 H58        -4.2450    4.4160   -1.5510 h1        1 MOL      0.061695
    129 H59        -3.4260    2.5380   -3.1310 h1        1 MOL      0.129499
    130 H60        -5.0650    3.2320   -3.4380 h1        1 MOL      0.129499
    131 H61        -4.6120    0.9410   -3.2910 ho        1 MOL      0.335511
    132 N12        -6.7620    3.7950   -1.1280 n         1 MOL     -0.445348
    133 C43        -8.1420    3.5450   -0.6320 c3        1 MOL      0.150976
    134 C44        -8.5600    2.1120   -0.8940 c         1 MOL      0.462216
    135 O18        -9.3010    1.5740   -0.1270 o         1 MOL     -0.530722
    136 C45        -9.1660    4.6210   -1.1420 c3        1 MOL     -0.267921
    137 H62        -6.5990    4.4960   -1.8370 hn        1 MOL      0.295190
    138 H63        -8.0870    3.6630    0.4450 h1        1 MOL      0.090903
    139 H64        -9.3740    4.3340   -2.1670 hc        1 MOL      0.091410
    140 H65        -9.9970    4.7840   -0.4500 hc        1 MOL      0.091410
    141 H66        -8.6820    5.5980   -1.1780 hc        1 MOL      0.091410
    142 N13        -8.0410    1.4130   -1.8680 n         1 MOL     -0.309088
    143 C46        -8.2100   -0.0590   -2.0370 c3        1 MOL      0.131946
    144 C47        -7.4340   -0.9660   -1.0780 c         1 MOL      0.316289
    145 O19        -7.8420   -2.0560   -0.6760 o         1 MOL     -0.528134
    146 C48        -7.9900   -0.3550   -3.4810 c3        1 MOL     -0.361248
    147 H67        -7.3170    1.7880   -2.4670 hn        1 MOL      0.194505
    148 H68        -9.2630   -0.1890   -1.8280 h1        1 MOL      0.111344
    149 H69        -8.8410    0.1720   -3.9240 hc        1 MOL      0.094612
    150 H70        -7.0370    0.0770   -3.7650 hc        1 MOL      0.094612
    151 H71        -8.1660   -1.4250   -3.5940 hc        1 MOL      0.094612
    152 N14        -6.2440   -0.5370   -0.6110 n         1 MOL      0.064086
    153 C49        -5.4500   -1.1850    0.4080 c3        1 MOL     -0.054835
    154 C50        -5.9810   -0.9080    1.8240 c         1 MOL      0.425039
    155 O20        -5.8860   -1.8910    2.6180 o         1 MOL     -0.545137
    156 C51        -4.0170   -0.6910    0.1830 c3        1 MOL     -0.018242
    157 C52        -3.1560   -1.2660   -0.9780 c3        1 MOL     -0.017354
    158 C53        -1.6390   -0.8480   -0.9100 c         1 MOL      0.559952
    159 O21        -1.3020    0.2130   -1.4810 o         1 MOL     -0.682059
    160 O22        -0.7590   -1.5610   -0.3650 o         1 MOL     -0.682059
    161 H72        -5.9010    0.3530   -0.9210 hn        1 MOL     -0.186730
    162 H73        -5.5450   -2.2610    0.2170 h1        1 MOL      0.057890
    163 H74        -3.5350   -0.9380    1.1380 hc        1 MOL      0.076023
    164 H75        -3.9970    0.3930    0.0660 hc        1 MOL      0.076023
    165 H76        -3.6780   -1.1230   -1.9220 hc        1 MOL     -0.043516
    166 H77        -3.1820   -2.3360   -0.7580 hc        1 MOL     -0.043516
    167 N15        -6.5560    0.2600    1.9730 n         1 MOL     -0.015557
    168 C54        -7.3210    0.6320    3.2260 c3        1 MOL     -0.348581
    169 H78        -7.3600    1.7170    3.3190 h1        1 MOL      0.136971
    170 H79        -8.3350    0.2380    3.1640 h1        1 MOL      0.136971
    171 H80        -6.8190    0.2110    4.0970 h1        1 MOL      0.136971
    172 H81        -6.4270    0.9550    1.2530 hn        1 MOL      0.077555
    173 Ca1         1.4010   -0.4390   -1.4310 Ca        1 MOL      1.796108
    174 O23         1.2970    1.6880   -3.0160 oh        1 MOL     -0.876340
    175 H82         1.7740    1.9050   -3.8160 ho        1 MOL      0.426897
    176 H83         0.7110    2.4240   -2.8760 ho        1 MOL      0.426897
    177 O24         0.4620   -1.9480   -3.2710 oh        1 MOL     -0.876340
    178 H84        -0.2720   -1.4960   -3.6840 ho        1 MOL      0.426897
    179 H85         0.4480   -2.8310   -3.6430 ho        1 MOL      0.426897
@<TRIPOS>BOND
     1    1    2 1   
     2    1    4 1   
     3    1    5 1   
     4    1    6 1   
     5    2    3 2   
     6    2    7 1   
     7    7    8 1   
     8    7   15 1   
     9    8    9 1   
    10    8   11 1   
    11    8   16 1   
    12    9   10 2   
    13    9   19 1   
    14   11   12 1   
    15   11   17 1   
    16   11   18 1   
    17   12   13 1   
    18   12   14 1   
    19   19   20 1   
    20   19   28 1   
    21   20   21 1   
    22   20   23 1   
    23   20   29 1   
    24   21   22 2   
    25   21   41 1   
    26   23   24 1   
    27   23   30 1   
    28   23   31 1   
    29   24   25 1   
    30   24   32 1   
    31   24   33 1   
    32   25   26 1   
    33   25   34 1   
    34   25   35 1   
    35   26   27 1   
    36   26   36 1   
    37   26   37 1   
    38   27   38 1   
    39   27   39 1   
    40   27   40 1   
    41   41   42 1   
    42   41   49 1   
    43   42   43 1   
    44   42   45 1   
    45   42   50 1   
    46   43   44 2   
    47   43   53 1   
    48   45   46 1   
    49   45   51 1   
    50   45   52 1   
    51   46   47 1   
    52   46   48 1   
    53   53   54 1   
    54   53   57 1   
    55   54   55 1   
    56   54   58 1   
    57   54   59 1   
    58   55   56 2   
    59   55   60 1   
    60   60   61 1   
    61   60   68 1   
    62   61   62 1   
    63   61   64 1   
    64   61   69 1   
    65   62   63 2   
    66   62   74 1   
    67   64   65 1   
    68   64   70 1   
    69   64   71 1   
    70   65   66 1   
    71   65   67 2   
    72   66   72 1   
    73   66   73 1   
    74   74   75 1   
    75   74   78 1   
    76   75   76 1   
    77   75   79 1   
    78   75   80 1   
    79   76   77 2   
    80   76   81 1   
    81   81   82 1   
    82   81   93 1   
    83   82   83 1   
    84   82   85 1   
    85   82   94 1   
    86   83   84 2   
    87   83  102 1   
    88   85   86 1   
    89   85   95 1   
    90   85   96 1   
    91   86   87 ar  
    92   86   88 ar  
    93   87   89 ar  
    94   87   97 1   
    95   88   90 ar  
    96   88   98 1   
    97   89   91 ar  
    98   89   99 1   
    99   90   91 ar  
   100   90  100 1   
   101   91   92 1   
   102   92  101 1   
   103  102  103 1   
   104  102  110 1   
   105  103  104 1   
   106  103  106 1   
   107  103  111 1   
   108  104  105 2   
   109  104  121 1   
   110  106  107 1   
   111  106  108 1   
   112  106  112 1   
   113  107  109 1   
   114  107  113 1   
   115  107  114 1   
   116  108  115 1   
   117  108  116 1   
   118  108  117 1   
   119  109  118 1   
   120  109  119 1   
   121  109  120 1   
   122  121  122 1   
   123  121  127 1   
   124  122  123 1   
   125  122  125 1   
   126  122  128 1   
   127  123  124 2   
   128  123  132 1   
   129  125  126 1   
   130  125  129 1   
   131  125  130 1   
   132  126  131 1   
   133  132  133 1   
   134  132  137 1   
   135  133  134 1   
   136  133  136 1   
   137  133  138 1   
   138  134  135 2   
   139  134  142 1   
   140  136  139 1   
   141  136  140 1   
   142  136  141 1   
   143  142  143 1   
   144  142  147 1   
   145  143  144 1   
   146  143  146 1   
   147  143  148 1   
   148  144  145 2   
   149  144  152 1   
   150  146  149 1   
   151  146  150 1   
   152  146  151 1   
   153  152  153 1   
   154  152  161 1   
   155  153  154 1   
   156  153  156 1   
   157  153  162 1   
   158  154  155 2   
   159  154  167 1   
   160  156  157 1   
   161  156  163 1   
   162  156  164 1   
   163  157  158 1   
   164  157  165 1   
   165  157  166 1   
   166  158  159 1   
   167  158  160 1   
   168  167  168 1   
   169  167  172 1   
   170  168  169 1   
   171  168  170 1   
   172  168  171 1   
   173  174  175 1   
   174  174  176 1   
   175  177  178 1   
   176  177  179 1   
@<TRIPOS>SUBSTRUCTURE
     1 MOL         1 TEMP              0 ****  ****    0 ROOT
