@<TRIPOS>MOLECULE
MOL
  169   169     1     0     0
SMALL
resp


@<TRIPOS>ATOM
      1 C1         -0.5200    4.4200    5.8180 c3        1 MOL     -0.440909
      2 C2         -0.8090    4.0350    4.3420 c         1 MOL      0.729534
      3 O1          0.0100    4.2980    3.4870 o         1 MOL     -0.583162
      4 H1         -1.4110    4.2420    6.4200 hc        1 MOL      0.106402
      5 H2          0.3020    3.8130    6.1970 hc        1 MOL      0.106402
      6 H3         -0.2490    5.4750    5.8720 hc        1 MOL      0.106402
      7 N1         -1.9240    3.4070    4.0310 n         1 MOL     -0.543941
      8 C3         -2.3240    3.1440    2.6760 c3        1 MOL     -0.087291
      9 C4         -2.6990    4.3630    1.8410 c         1 MOL      0.686784
     10 O2         -3.4190    5.2470    2.2890 o         1 MOL     -0.601514
     11 C5         -3.5760    2.1920    2.7520 c3        1 MOL     -0.022541
     12 C6         -3.5730    1.3940    1.4270 c         1 MOL      0.673310
     13 O3         -3.6350    2.0390    0.3640 o         1 MOL     -0.759106
     14 O4         -3.3230    0.1550    1.4110 o         1 MOL     -0.759106
     15 H4         -2.5410    3.2190    4.7950 hn        1 MOL      0.300721
     16 H5         -1.4860    2.6530    2.1860 h1        1 MOL      0.158479
     17 H6         -4.5160    2.7390    2.8750 hc        1 MOL      0.013978
     18 H7         -3.5990    1.4780    3.5700 hc        1 MOL      0.013978
     19 N2         -2.1400    4.3700    0.6090 n         1 MOL     -0.605112
     20 C7         -2.2480    5.4590   -0.4000 c3        1 MOL      0.451530
     21 C8         -3.0900    5.0790   -1.6370 c         1 MOL      0.328993
     22 O5         -2.9740    5.6750   -2.6990 o         1 MOL     -0.542359
     23 C9         -0.8820    6.0180   -0.6700 c3        1 MOL     -0.237090
     24 H8         -1.5580    3.6160    0.2800 hn        1 MOL      0.383570
     25 H9         -2.8060    6.2530    0.1100 h1        1 MOL     -0.039746
     26 H10        -0.9360    6.5660   -1.6060 hc        1 MOL      0.044328
     27 H11        -0.6130    6.7060    0.1270 hc        1 MOL      0.044328
     28 H12        -0.2300    5.1550   -0.7630 hc        1 MOL      0.044328
     29 N3         -3.9150    4.0340   -1.6000 n         1 MOL     -0.166479
     30 C10        -4.9390    3.6440   -2.6210 c3        1 MOL     -0.079378
     31 C11        -6.2210    2.9870   -1.9900 c         1 MOL      0.447025
     32 O6         -7.2080    2.8110   -2.7060 o         1 MOL     -0.531573
     33 C12        -4.2860    2.6710   -3.5930 c3        1 MOL     -0.075416
     34 C13        -3.5610    1.5170   -2.9060 c         1 MOL      0.773752
     35 O7         -4.2140    0.7460   -2.1580 o         1 MOL     -0.747844
     36 O8         -2.3410    1.2500   -3.1600 o         1 MOL     -0.747844
     37 H13        -4.0120    3.5370   -0.7340 hn        1 MOL      0.065215
     38 H14        -5.3440    4.5460   -3.0880 h1        1 MOL      0.100071
     39 H15        -3.5870    3.2660   -4.1860 hc        1 MOL      0.037667
     40 H16        -4.9290    2.3460   -4.4160 hc        1 MOL      0.037667
     41 N4         -6.2070    2.5690   -0.7100 n         1 MOL     -0.369941
     42 C14        -7.1250    1.7130    0.0500 c3        1 MOL     -0.046404
     43 C15        -7.2820    0.2170   -0.3400 c         1 MOL      0.552110
     44 O9         -8.3930   -0.3480    0.0190 o         1 MOL     -0.629006
     45 H17        -5.3800    2.7980   -0.1790 hn        1 MOL      0.301640
     46 H18        -8.1280    2.1280    0.0960 h1        1 MOL      0.067334
     47 H19        -6.7310    1.6950    1.0640 h1        1 MOL      0.067334
     48 N5         -6.3850   -0.3790   -1.1550 n         1 MOL     -0.391869
     49 C16        -6.5920   -1.7080   -1.6680 c3        1 MOL      0.094021
     50 C17        -6.3830   -2.9260   -0.6040 c         1 MOL      0.341379
     51 O10        -6.0250   -4.0140   -1.0170 o         1 MOL     -0.430833
     52 C18        -5.7690   -2.0510   -2.9230 c3        1 MOL     -0.164245
     53 C19        -4.3010   -2.3610   -2.6050 c         1 MOL      0.618702
     54 N6         -3.5830   -3.0320   -3.5180 n         1 MOL     -0.712642
     55 O11        -3.7950   -2.0330   -1.5260 o         1 MOL     -0.688889
     56 H20        -5.6210    0.1840   -1.4870 hn        1 MOL      0.371821
     57 H21        -7.6260   -1.7440   -2.0200 h1        1 MOL      0.088872
     58 H22        -5.8270   -1.2600   -3.6860 hc        1 MOL      0.054373
     59 H23        -6.0920   -2.9650   -3.4230 hc        1 MOL      0.054373
     60 H24        -3.9970   -3.1460   -4.4290 hn        1 MOL      0.352538
     61 H25        -2.7050   -3.5080   -3.3800 hn        1 MOL      0.352538
     62 N7         -6.5440   -2.7760    0.7310 n         1 MOL     -0.302946
     63 C20        -6.3690   -3.9650    1.6710 c3        1 MOL     -0.160292
     64 C21        -5.0060   -4.6430    1.6970 c         1 MOL      0.506252
     65 O12        -4.9190   -5.7940    1.9670 o         1 MOL     -0.561804
     66 H26        -7.0010   -1.9650    1.1280 hn        1 MOL      0.266712
     67 H27        -7.0420   -4.7650    1.3280 h1        1 MOL      0.109552
     68 H28        -6.7470   -3.7160    2.6620 h1        1 MOL      0.109552
     69 N8         -3.9210   -4.0170    1.2170 n         1 MOL     -0.297825
     70 C22        -2.5300   -4.5680    1.1040 c3        1 MOL     -0.147161
     71 C23        -1.5110   -3.4960    1.1980 c         1 MOL      0.351687
     72 O13        -1.7700   -2.3390    0.8150 o         1 MOL     -0.429672
     73 C24        -2.3280   -5.0940   -0.2870 c3        1 MOL      0.510619
     74 C25        -1.1790   -6.0120   -0.5310 c3        1 MOL     -0.341245
     75 O14        -3.4600   -5.8390   -0.8330 oh        1 MOL     -0.644795
     76 H29        -4.0800   -3.0950    0.8440 hn        1 MOL      0.231238
     77 H30        -2.4850   -5.4020    1.8000 h1        1 MOL      0.103344
     78 H31        -2.1280   -4.2260   -0.9150 h1        1 MOL      0.040049
     79 H32        -4.1140   -5.6030   -0.1740 ho        1 MOL      0.389784
     80 H33        -1.0260   -6.3230   -1.5640 hc        1 MOL      0.073598
     81 H34        -0.2980   -5.4460   -0.2390 hc        1 MOL      0.073598
     82 H35        -1.2500   -6.9450    0.0220 hc        1 MOL      0.073598
     83 N9         -0.3430   -3.8630    1.6990 n         1 MOL     -0.296126
     84 C26         0.8050   -2.9130    1.8900 c3        1 MOL     -0.021252
     85 C27         1.8170   -3.0770    0.7550 c         1 MOL      0.369683
     86 O15         2.5200   -4.0870    0.5730 o         1 MOL     -0.571389
     87 C28         1.4210   -2.9990    3.3640 c3        1 MOL      0.175876
     88 C29         0.3500   -3.1190    4.4330 c3        1 MOL      0.041716
     89 C30         2.2640   -1.6950    3.6460 c3        1 MOL     -0.214834
     90 C31         0.7830   -3.1880    5.8730 c3        1 MOL     -0.321078
     91 H36        -0.2340   -4.7550    2.1440 hn        1 MOL      0.246637
     92 H37         0.4380   -1.8990    1.7500 h1        1 MOL      0.088321
     93 H38         2.0710   -3.8640    3.4680 hc        1 MOL     -0.034258
     94 H39        -0.1750   -4.0480    4.2120 hc        1 MOL      0.021803
     95 H40        -0.3750   -2.3220    4.3250 hc        1 MOL      0.021803
     96 H41         3.0530   -1.5070    2.9240 hc        1 MOL      0.053213
     97 H42         1.6750   -0.7800    3.5750 hc        1 MOL      0.053213
     98 H43         2.8210   -1.8490    4.5720 hc        1 MOL      0.053213
     99 H44         1.7230   -3.7400    6.0000 hc        1 MOL      0.073777
    100 H45         0.9070   -2.1750    6.2480 hc        1 MOL      0.073777
    101 H46        -0.0710   -3.6960    6.3140 hc        1 MOL      0.073777
    102 N10         1.8940   -2.0340   -0.1490 n         1 MOL      0.127811
    103 C32         2.8600   -1.9770   -1.2910 c3        1 MOL     -0.049900
    104 C33         4.2610   -1.4380   -0.9120 c         1 MOL      0.503052
    105 O16         4.3330   -0.6910    0.0690 o         1 MOL     -0.402595
    106 C34         2.1630   -1.1740   -2.3300 c3        1 MOL     -0.112355
    107 C35         0.7640   -1.7350   -2.7080 c         1 MOL      0.684046
    108 O17        -0.2870   -1.4130   -2.1220 o         1 MOL     -0.690765
    109 O18         0.7910   -2.5460   -3.6660 o         1 MOL     -0.690765
    110 H47         1.2600   -1.2630   -0.0220 hn        1 MOL     -0.188913
    111 H48         3.0930   -2.9530   -1.7070 h1        1 MOL      0.062833
    112 H49         2.7750   -0.9220   -3.1930 hc        1 MOL      0.047019
    113 H50         1.9790   -0.2320   -1.8190 hc        1 MOL      0.047019
    114 N11         5.3220   -1.5220   -1.7680 n         1 MOL     -0.698483
    115 C36         6.6360   -1.1060   -1.2520 c3        1 MOL      0.436803
    116 C37         6.8630    0.4110   -0.9300 c         1 MOL      0.249899
    117 O19         7.5560    0.7650    0.0090 o         1 MOL     -0.506982
    118 C38         7.6370   -1.6360   -2.3110 c3        1 MOL     -0.128432
    119 C39         9.1040   -1.6160   -2.0260 ca        1 MOL      0.103754
    120 C40         9.5760   -2.6430   -1.1650 ca        1 MOL     -0.240824
    121 C41         9.9310   -0.5170   -2.4450 ca        1 MOL     -0.240824
    122 C42        10.9150   -2.6180   -0.7290 ca        1 MOL      0.014272
    123 C43        11.2030   -0.4090   -1.9270 ca        1 MOL      0.014272
    124 C44        11.7070   -1.5300   -1.1140 ca        1 MOL     -0.246298
    125 H51         5.3270   -2.0930   -2.6040 hn        1 MOL      0.355952
    126 H52         6.9340   -1.6240   -0.3450 h1        1 MOL      0.022196
    127 H53         7.5140   -1.1710   -3.2830 hc        1 MOL      0.030018
    128 H54         7.4400   -2.6850   -2.5430 hc        1 MOL      0.030018
    129 H55         8.9770   -3.4970   -0.8920 ha        1 MOL      0.139823
    130 H56         9.5370    0.3010   -3.0410 ha        1 MOL      0.139823
    131 H57        11.2270   -3.4690   -0.1360 ha        1 MOL      0.087085
    132 H58        11.8710    0.3860   -2.2460 ha        1 MOL      0.087085
    133 H59        12.7250   -1.5530   -0.7550 ha        1 MOL      0.115570
    134 N12         6.1690    1.3800   -1.5860 n         1 MOL     -0.015152
    135 C45         6.0570    2.7920   -1.1230 c3        1 MOL     -0.060452
    136 C46         5.2210    2.9990    0.1460 c         1 MOL      0.414897
    137 O20         5.2160    4.1360    0.6040 o         1 MOL     -0.550006
    138 C47         5.5290    3.6230   -2.3400 c3        1 MOL     -0.042071
    139 C48         5.8990    2.7570   -3.5380 c3        1 MOL     -0.034526
    140 C49         5.5530    1.4030   -2.9010 c3        1 MOL      0.093737
    141 H60         7.0620    3.1910   -0.9740 h1        1 MOL      0.091993
    142 H61         4.4590    3.7000   -2.1830 hc        1 MOL      0.043062
    143 H62         5.9690    4.6170   -2.3920 hc        1 MOL      0.043062
    144 H63         5.3630    2.9380   -4.4600 hc        1 MOL      0.010555
    145 H64         6.9850    2.7000   -3.6580 hc        1 MOL      0.010555
    146 H65         4.4790    1.2130   -2.8100 h1        1 MOL      0.000134
    147 H66         6.0220    0.6310   -3.5080 h1        1 MOL      0.000134
    148 N13         4.6260    1.9720    0.7250 n         1 MOL     -0.181782
    149 C50         3.8140    2.0100    1.9730 c3        1 MOL      0.031379
    150 C51         4.5290    1.1730    3.0540 c         1 MOL      0.366970
    151 O21         4.6350    1.7150    4.1340 o         1 MOL     -0.556587
    152 C52         2.4040    1.6100    1.6020 c3        1 MOL      0.017854
    153 C53         1.6770    2.4960    0.5550 c3        1 MOL     -0.028966
    154 C54         0.4130    1.7060    0.1400 c         1 MOL      0.568450
    155 O22         0.1310    0.5020    0.5480 o         1 MOL     -0.673628
    156 O23        -0.5090    2.1730   -0.5520 o         1 MOL     -0.673628
    157 H67         4.4500    1.1330    0.1870 hn        1 MOL      0.093517
    158 H68         3.7980    3.0110    2.4150 h1        1 MOL      0.084415
    159 H69         1.7900    1.5020    2.4950 hc        1 MOL      0.047149
    160 H70         2.5390    0.5840    1.2440 hc        1 MOL      0.047149
    161 H71         2.2560    2.6270   -0.3610 hc        1 MOL      0.033217
    162 H72         1.4120    3.4650    0.9890 hc        1 MOL      0.033217
    163 N14         5.0350   -0.0130    2.8420 n         1 MOL     -0.039521
    164 C55         5.8730   -0.7250    3.7930 c3        1 MOL     -0.112461
    165 H73         6.8220   -0.9780    3.3200 h1        1 MOL      0.053242
    166 H74         6.0570   -0.0910    4.6610 h1        1 MOL      0.053242
    167 H75         5.3700   -1.6380    4.1090 h1        1 MOL      0.053242
    168 H76         4.9820   -0.3370    1.8840 hn        1 MOL      0.095271
    169 Ca1        -2.1000   -0.1220   -0.8630 Ca        1 MOL      1.772149
@<TRIPOS>BOND
     1    1    2 1   
     2    1    4 1   
     3    1    5 1   
     4    1    6 1   
     5    2    3 2   
     6    2    7 1   
     7    7    8 1   
     8    7   15 1   
     9    8    9 1   
    10    8   11 1   
    11    8   16 1   
    12    9   10 2   
    13    9   19 1   
    14   11   12 1   
    15   11   17 1   
    16   11   18 1   
    17   12   13 1   
    18   12   14 1   
    19   19   20 1   
    20   19   24 1   
    21   20   21 1   
    22   20   23 1   
    23   20   25 1   
    24   21   22 2   
    25   21   29 1   
    26   23   26 1   
    27   23   27 1   
    28   23   28 1   
    29   29   30 1   
    30   29   37 1   
    31   30   31 1   
    32   30   33 1   
    33   30   38 1   
    34   31   32 2   
    35   31   41 1   
    36   33   34 1   
    37   33   39 1   
    38   33   40 1   
    39   34   35 1   
    40   34   36 1   
    41   41   42 1   
    42   41   45 1   
    43   42   43 1   
    44   42   46 1   
    45   42   47 1   
    46   43   44 2   
    47   43   48 1   
    48   48   49 1   
    49   48   56 1   
    50   49   50 1   
    51   49   52 1   
    52   49   57 1   
    53   50   51 2   
    54   50   62 1   
    55   52   53 1   
    56   52   58 1   
    57   52   59 1   
    58   53   54 1   
    59   53   55 2   
    60   54   60 1   
    61   54   61 1   
    62   62   63 1   
    63   62   66 1   
    64   63   64 1   
    65   63   67 1   
    66   63   68 1   
    67   64   65 2   
    68   64   69 1   
    69   69   70 1   
    70   69   76 1   
    71   70   71 1   
    72   70   73 1   
    73   70   77 1   
    74   71   72 2   
    75   71   83 1   
    76   73   74 1   
    77   73   75 1   
    78   73   78 1   
    79   74   80 1   
    80   74   81 1   
    81   74   82 1   
    82   75   79 1   
    83   83   84 1   
    84   83   91 1   
    85   84   85 1   
    86   84   87 1   
    87   84   92 1   
    88   85   86 2   
    89   85  102 1   
    90   87   88 1   
    91   87   89 1   
    92   87   93 1   
    93   88   90 1   
    94   88   94 1   
    95   88   95 1   
    96   89   96 1   
    97   89   97 1   
    98   89   98 1   
    99   90   99 1   
   100   90  100 1   
   101   90  101 1   
   102  102  103 1   
   103  102  110 1   
   104  103  104 1   
   105  103  106 1   
   106  103  111 1   
   107  104  105 2   
   108  104  114 1   
   109  106  107 1   
   110  106  112 1   
   111  106  113 1   
   112  107  108 1   
   113  107  109 1   
   114  114  115 1   
   115  114  125 1   
   116  115  116 1   
   117  115  118 1   
   118  115  126 1   
   119  116  117 2   
   120  116  134 1   
   121  118  119 1   
   122  118  127 1   
   123  118  128 1   
   124  119  120 ar  
   125  119  121 ar  
   126  120  122 ar  
   127  120  129 1   
   128  121  123 ar  
   129  121  130 1   
   130  122  124 ar  
   131  122  131 1   
   132  123  124 ar  
   133  123  132 1   
   134  124  133 1   
   135  134  135 1   
   136  134  140 1   
   137  135  136 1   
   138  135  138 1   
   139  135  141 1   
   140  136  137 2   
   141  136  148 1   
   142  138  139 1   
   143  138  142 1   
   144  138  143 1   
   145  139  140 1   
   146  139  144 1   
   147  139  145 1   
   148  140  146 1   
   149  140  147 1   
   150  148  149 1   
   151  148  157 1   
   152  149  150 1   
   153  149  152 1   
   154  149  158 1   
   155  150  151 2   
   156  150  163 1   
   157  152  153 1   
   158  152  159 1   
   159  152  160 1   
   160  153  154 1   
   161  153  161 1   
   162  153  162 1   
   163  154  155 1   
   164  154  156 1   
   165  163  164 1   
   166  163  168 1   
   167  164  165 1   
   168  164  166 1   
   169  164  167 1   
@<TRIPOS>SUBSTRUCTURE
     1 MOL         1 TEMP              0 ****  ****    0 ROOT
