@<TRIPOS>MOLECULE
MOL
  175   173     1     0     0
SMALL
resp


@<TRIPOS>ATOM
      1 C1          0.3690    3.8440    5.4150 c3        1 MOL     -0.370523
      2 C2         -0.2820    3.8720    4.0670 c         1 MOL      0.731256
      3 O1          0.4370    3.9180    3.0420 o         1 MOL     -0.554683
      4 H1          0.2900    4.8280    5.8770 hc        1 MOL      0.089520
      5 H2         -0.1280    3.1070    6.0440 hc        1 MOL      0.089520
      6 H3          1.4210    3.5790    5.3050 hc        1 MOL      0.089520
      7 N1         -1.6130    3.7920    3.9910 n         1 MOL     -0.696383
      8 C3         -2.2410    3.4910    2.7570 c3        1 MOL      0.228913
      9 C4         -2.3250    4.7360    1.8310 c         1 MOL      0.629055
     10 O2         -2.4530    5.8830    2.2460 o         1 MOL     -0.582202
     11 C5         -3.5820    2.7900    3.0040 c3        1 MOL     -0.358781
     12 C6         -4.3710    2.4360    1.7440 c         1 MOL      0.742621
     13 O3         -3.8120    1.9990    0.7180 o         1 MOL     -0.629343
     14 O4         -5.5780    2.5250    1.8850 o         1 MOL     -0.629343
     15 H4         -2.1880    3.7750    4.8160 hn        1 MOL      0.338494
     16 H5         -1.6060    2.7440    2.2870 h1        1 MOL      0.100754
     17 H6         -4.2540    3.4340    3.5730 hc        1 MOL      0.070005
     18 H7         -3.4560    1.8570    3.5460 hc        1 MOL      0.070005
     19 N2         -2.2810    4.4950    0.5410 n         1 MOL     -0.652029
     20 C7         -2.5450    5.4570   -0.5020 c3        1 MOL      0.506531
     21 C8         -3.5980    5.0570   -1.5720 c         1 MOL      0.317550
     22 O5         -3.8710    5.8850   -2.3960 o         1 MOL     -0.535588
     23 C9         -1.1980    5.9170   -1.0540 c3        1 MOL     -0.192333
     24 H8         -2.2650    3.5290    0.2560 hn        1 MOL      0.234329
     25 H9         -2.9460    6.3800   -0.0660 h1        1 MOL     -0.036721
     26 H10        -0.6270    6.4330   -0.2830 hc        1 MOL      0.037202
     27 H11        -0.6070    5.1370   -1.5300 hc        1 MOL      0.037202
     28 H12        -1.4250    6.6170   -1.8550 hc        1 MOL      0.037202
     29 N3         -4.0620    3.7960   -1.5660 n         1 MOL     -0.225699
     30 C10        -4.9820    3.3520   -2.6370 c3        1 MOL      0.232904
     31 C11        -6.1480    2.5220   -2.2330 c         1 MOL      0.305005
     32 O6         -7.0730    2.3250   -3.0320 o         1 MOL     -0.564352
     33 C12        -4.1760    2.7030   -3.7780 c3        1 MOL     -0.365354
     34 C13        -3.4390    1.3960   -3.4320 c         1 MOL      0.761476
     35 O7         -3.5960    0.8520   -2.3500 o         1 MOL     -0.693604
     36 O8         -2.5730    0.8930   -4.2080 o         1 MOL     -0.693604
     37 H13        -3.6610    3.1120   -0.9270 hn        1 MOL      0.141811
     38 H14        -5.4500    4.2880   -2.9510 h1        1 MOL      0.049540
     39 H15        -3.4630    3.4370   -4.1490 hc        1 MOL      0.082882
     40 H16        -4.8130    2.3830   -4.6070 hc        1 MOL      0.082882
     41 N4         -6.2210    1.9900   -1.0490 n         1 MOL     -0.030939
     42 C14        -7.3000    1.0690   -0.4900 c3        1 MOL     -0.093826
     43 C15        -7.3080   -0.2940   -1.0260 c         1 MOL      0.467549
     44 O9         -8.3670   -0.8750   -1.1460 o         1 MOL     -0.600630
     45 H17        -5.5270    2.2170   -0.3530 hn        1 MOL     -0.034117
     46 H18        -8.2930    1.5060   -0.6270 h1        1 MOL      0.073253
     47 H19        -7.1310    1.0500    0.5810 h1        1 MOL      0.073253
     48 N5         -6.1680   -0.7820   -1.4020 n         1 MOL     -0.052095
     49 C16        -6.0880   -2.1020   -2.0860 c3        1 MOL     -0.101379
     50 C17        -6.0880   -3.2960   -1.1450 c         1 MOL      0.487642
     51 O10        -5.9480   -4.4600   -1.4790 o         1 MOL     -0.541097
     52 C18        -4.9120   -2.1580   -3.1260 c3        1 MOL      0.029791
     53 C19        -3.5310   -2.1850   -2.6210 c         1 MOL      0.484676
     54 N6         -2.5730   -2.1220   -3.4730 n         1 MOL     -0.602741
     55 O11        -3.2790   -2.1590   -1.4160 o         1 MOL     -0.564821
     56 H20        -5.3370   -0.2140   -1.5180 hn        1 MOL      0.119940
     57 H21        -6.9730   -2.2760   -2.6980 h1        1 MOL      0.093465
     58 H22        -5.1130   -1.4190   -3.8930 hc        1 MOL      0.023627
     59 H23        -5.0710   -3.0540   -3.7180 hc        1 MOL      0.023627
     60 H24        -2.7720   -2.0910   -4.4670 hn        1 MOL      0.340421
     61 H25        -1.6520   -1.9030   -3.1130 hn        1 MOL      0.340421
     62 N7         -6.1890   -3.0190    0.1270 n         1 MOL     -0.266714
     63 C20        -6.2960   -4.0190    1.2170 c3        1 MOL     -0.017728
     64 C21        -4.9250   -4.6230    1.7170 c         1 MOL      0.404082
     65 O12        -4.9220   -5.6240    2.4630 o         1 MOL     -0.554002
     66 H26        -6.4040   -2.0640    0.3990 hn        1 MOL      0.192664
     67 H27        -7.0750   -4.7710    1.1110 h1        1 MOL      0.060988
     68 H28        -6.6980   -3.5240    2.0990 h1        1 MOL      0.060988
     69 N8         -3.8660   -4.0290    1.2540 n         1 MOL     -0.120787
     70 C22        -2.4690   -4.5210    1.3660 c3        1 MOL     -0.287152
     71 C23        -1.4520   -3.3600    1.5050 c         1 MOL      0.542499
     72 O13        -1.6440   -2.3460    0.8350 o         1 MOL     -0.478681
     73 C24        -1.9360   -5.4270    0.2150 c3        1 MOL      0.625892
     74 C25        -2.7290   -6.7330    0.2020 c3        1 MOL     -0.456170
     75 O14        -1.9870   -4.7320   -1.0240 oh        1 MOL     -0.634507
     76 H29        -4.1190   -3.3670    0.5360 hn        1 MOL      0.149912
     77 H30        -2.3950   -5.0570    2.3180 h1        1 MOL      0.096899
     78 H31        -0.8940   -5.6730    0.4260 h1        1 MOL     -0.043663
     79 H32        -2.4770   -3.9450   -0.7690 ho        1 MOL      0.385237
     80 H33        -3.7960   -6.5660    0.0640 hc        1 MOL      0.102084
     81 H34        -2.3910   -7.3580   -0.6280 hc        1 MOL      0.102084
     82 H35        -2.5140   -7.3330    1.0860 hc        1 MOL      0.102084
     83 N9         -0.3690   -3.5880    2.2320 n         1 MOL     -0.509336
     84 C26         0.8070   -2.6210    2.2200 c3        1 MOL     -0.103787
     85 C27         1.5860   -2.8820    0.9380 c         1 MOL      0.581993
     86 O15         2.1130   -3.9470    0.6660 o         1 MOL     -0.623904
     87 C28         1.7370   -2.7040    3.4730 c3        1 MOL      0.181569
     88 C29         0.8470   -2.4280    4.7470 c3        1 MOL      0.179270
     89 C30         2.9480   -1.7710    3.4750 c3        1 MOL      0.008247
     90 C31         1.5490   -2.3910    6.1020 c3        1 MOL     -0.183081
     91 H36        -0.2140   -4.5220    2.5680 hn        1 MOL      0.305765
     92 H37         0.4210   -1.6020    2.1550 h1        1 MOL      0.137476
     93 H38         2.1460   -3.7050    3.5780 hc        1 MOL     -0.036410
     94 H39         0.0910   -3.2070    4.8210 hc        1 MOL     -0.057923
     95 H40         0.3730   -1.4650    4.5400 hc        1 MOL     -0.057923
     96 H41         3.5470   -1.9570    4.3690 hc        1 MOL     -0.011341
     97 H42         3.6320   -2.0870    2.6810 hc        1 MOL     -0.011341
     98 H43         2.6490   -0.7440    3.2720 hc        1 MOL     -0.011341
     99 H44         0.8830   -2.1780    6.9410 hc        1 MOL      0.028384
    100 H45         1.9680   -3.3880    6.2600 hc        1 MOL      0.028384
    101 H46         2.3040   -1.6010    6.0150 hc        1 MOL      0.028384
    102 N10         1.7020   -1.9080    0.1100 n         1 MOL      0.046403
    103 C32         2.6850   -1.8660   -1.0490 c3        1 MOL      0.063967
    104 C33         4.1660   -1.4830   -0.6860 c         1 MOL      0.363303
    105 O16         4.5090   -1.1100    0.4670 o         1 MOL     -0.335360
    106 C34         2.1160   -0.9360   -2.0900 c3        1 MOL     -0.420093
    107 C35         0.6480   -1.1890   -2.5010 c         1 MOL      0.831995
    108 O17        -0.2970   -0.7620   -1.8170 o         1 MOL     -0.678603
    109 O18         0.3850   -1.7280   -3.5830 o         1 MOL     -0.678603
    110 H47         1.2090   -1.0410    0.2660 hn        1 MOL     -0.390845
    111 H48         2.7550   -2.8970   -1.4010 h1        1 MOL      0.091180
    112 H49         2.7180   -1.0650   -2.9830 hc        1 MOL      0.134431
    113 H50         2.2570    0.0920   -1.7510 hc        1 MOL      0.134431
    114 N11         5.1910   -1.7870   -1.5230 n         1 MOL     -0.512118
    115 C36         6.6350   -1.6130   -1.2700 c3        1 MOL      0.196228
    116 C37         6.9750   -0.1120   -1.0280 c         1 MOL      0.375842
    117 O19         7.7040    0.1870   -0.1070 o         1 MOL     -0.479092
    118 C38         7.4550   -2.2320   -2.3970 c3        1 MOL     -0.027071
    119 C39         8.9380   -1.7620   -2.3240 ca        1 MOL      0.006355
    120 C40         9.6720   -2.1780   -1.1220 ca        1 MOL     -0.241662
    121 C41         9.3860   -0.7240   -3.2120 ca        1 MOL     -0.241662
    122 C42        10.9000   -1.5440   -0.8900 ca        1 MOL      0.023902
    123 C43        10.6660   -0.1720   -2.9580 ca        1 MOL      0.023902
    124 C44        11.3890   -0.5990   -1.7860 ca        1 MOL     -0.230527
    125 H51         4.9740   -2.2750   -2.3830 hn        1 MOL      0.302351
    126 H52         6.9170   -2.1860   -0.3860 h1        1 MOL      0.071878
    127 H53         7.1180   -2.0180   -3.4010 hc        1 MOL      0.031015
    128 H54         7.4220   -3.3240   -2.3230 hc        1 MOL      0.031015
    129 H55         9.4150   -3.0770   -0.5880 ha        1 MOL      0.148271
    130 H56         8.7020   -0.5100   -4.0190 ha        1 MOL      0.148271
    131 H57        11.5540   -1.9470   -0.1340 ha        1 MOL      0.081915
    132 H58        11.1640    0.5130   -3.6380 ha        1 MOL      0.081915
    133 H59        12.3560   -0.2340   -1.4650 ha        1 MOL      0.124472
    134 N12         6.4670    0.8340   -1.8450 n         1 MOL      0.049316
    135 C45         6.3810    2.2460   -1.4530 c3        1 MOL     -0.050703
    136 C46         5.6400    2.7130   -0.1860 c         1 MOL      0.280249
    137 O20         5.8170    3.8930    0.2270 o         1 MOL     -0.516406
    138 C47         5.8320    2.9900   -2.6560 c3        1 MOL     -0.070704
    139 C48         5.2320    1.8670   -3.5110 c3        1 MOL      0.000786
    140 C49         6.1120    0.6960   -3.2190 c3        1 MOL      0.203083
    141 H60         7.4230    2.5350   -1.4770 h1        1 MOL      0.071749
    142 H61         5.0330    3.7020   -2.4300 hc        1 MOL      0.044786
    143 H62         6.6410    3.5160   -3.1630 hc        1 MOL      0.044786
    144 H63         4.1770    1.6890   -3.3000 hc        1 MOL      0.012228
    145 H64         5.3840    2.1490   -4.5560 hc        1 MOL      0.012228
    146 H65         5.5720   -0.2010   -3.5130 h1        1 MOL     -0.072844
    147 H66         7.0170    0.6870   -3.8240 h1        1 MOL     -0.072844
    148 N13         4.8440    1.8620    0.4740 n         1 MOL      0.118032
    149 C50         4.1230    2.0270    1.7300 c3        1 MOL     -0.066511
    150 C51         4.8820    1.3250    2.8950 c         1 MOL      0.418262
    151 O21         4.9620    1.8800    3.9700 o         1 MOL     -0.554702
    152 C52         2.7170    1.4640    1.6530 c3        1 MOL     -0.047952
    153 C53         1.8020    2.1070    0.6210 c3        1 MOL     -0.102279
    154 C54         0.4690    1.4510    0.4030 c         1 MOL      0.594285
    155 O22        -0.3330    1.8090   -0.4740 o         1 MOL     -0.675797
    156 O23         0.0600    0.4530    1.0210 o         1 MOL     -0.675797
    157 H67         4.9810    0.9300    0.1110 hn        1 MOL     -0.165206
    158 H68         4.1380    3.1100    1.8450 h1        1 MOL      0.103420
    159 H69         2.2640    1.4720    2.6440 hc        1 MOL      0.082664
    160 H70         2.7300    0.4420    1.2690 hc        1 MOL      0.082664
    161 H71         2.3320    1.9570   -0.3170 hc        1 MOL      0.082170
    162 H72         1.7330    3.1500    0.9170 hc        1 MOL      0.082170
    163 N14         5.6140    0.2370    2.6690 n         1 MOL     -0.109882
    164 C55         6.6090   -0.3720    3.5950 c3        1 MOL     -0.088757
    165 H73         6.1550   -1.2170    4.1130 h1        1 MOL      0.054549
    166 H74         7.4720   -0.7180    3.0250 h1        1 MOL      0.054549
    167 H75         6.9290    0.3710    4.3260 h1        1 MOL      0.054549
    168 H76         5.3010   -0.2510    1.8380 hn        1 MOL      0.109974
    169 Ca1        -2.2320    0.0660   -0.2580 Ca        1 MOL      1.745213
    170 O24        -4.4370   -0.9080    1.4650 oh        1 MOL     -0.901741
    171 H77        -5.3500   -1.0540    1.7160 ho        1 MOL      0.423501
    172 H78        -4.0640   -0.4320    2.2010 ho        1 MOL      0.423501
    173 O25        -2.0660    0.1960    2.5150 oh        1 MOL     -0.901741
    174 H79        -2.1010    0.2240    3.4710 ho        1 MOL      0.423501
    175 H80        -1.1380    0.1160    2.3030 ho        1 MOL      0.423501
@<TRIPOS>BOND
     1    1    2 1   
     2    1    4 1   
     3    1    5 1   
     4    1    6 1   
     5    2    3 2   
     6    2    7 1   
     7    7    8 1   
     8    7   15 1   
     9    8    9 1   
    10    8   11 1   
    11    8   16 1   
    12    9   10 2   
    13    9   19 1   
    14   11   12 1   
    15   11   17 1   
    16   11   18 1   
    17   12   13 1   
    18   12   14 1   
    19   19   20 1   
    20   19   24 1   
    21   20   21 1   
    22   20   23 1   
    23   20   25 1   
    24   21   22 2   
    25   21   29 1   
    26   23   26 1   
    27   23   27 1   
    28   23   28 1   
    29   29   30 1   
    30   29   37 1   
    31   30   31 1   
    32   30   33 1   
    33   30   38 1   
    34   31   32 2   
    35   31   41 1   
    36   33   34 1   
    37   33   39 1   
    38   33   40 1   
    39   34   35 1   
    40   34   36 1   
    41   41   42 1   
    42   41   45 1   
    43   42   43 1   
    44   42   46 1   
    45   42   47 1   
    46   43   44 2   
    47   43   48 1   
    48   48   49 1   
    49   48   56 1   
    50   49   50 1   
    51   49   52 1   
    52   49   57 1   
    53   50   51 2   
    54   50   62 1   
    55   52   53 1   
    56   52   58 1   
    57   52   59 1   
    58   53   54 1   
    59   53   55 2   
    60   54   60 1   
    61   54   61 1   
    62   62   63 1   
    63   62   66 1   
    64   63   64 1   
    65   63   67 1   
    66   63   68 1   
    67   64   65 2   
    68   64   69 1   
    69   69   70 1   
    70   69   76 1   
    71   70   71 1   
    72   70   73 1   
    73   70   77 1   
    74   71   72 2   
    75   71   83 1   
    76   73   74 1   
    77   73   75 1   
    78   73   78 1   
    79   74   80 1   
    80   74   81 1   
    81   74   82 1   
    82   75   79 1   
    83   83   84 1   
    84   83   91 1   
    85   84   85 1   
    86   84   87 1   
    87   84   92 1   
    88   85   86 2   
    89   85  102 1   
    90   87   88 1   
    91   87   89 1   
    92   87   93 1   
    93   88   90 1   
    94   88   94 1   
    95   88   95 1   
    96   89   96 1   
    97   89   97 1   
    98   89   98 1   
    99   90   99 1   
   100   90  100 1   
   101   90  101 1   
   102  102  103 1   
   103  102  110 1   
   104  103  104 1   
   105  103  106 1   
   106  103  111 1   
   107  104  105 2   
   108  104  114 1   
   109  106  107 1   
   110  106  112 1   
   111  106  113 1   
   112  107  108 1   
   113  107  109 1   
   114  114  115 1   
   115  114  125 1   
   116  115  116 1   
   117  115  118 1   
   118  115  126 1   
   119  116  117 2   
   120  116  134 1   
   121  118  119 1   
   122  118  127 1   
   123  118  128 1   
   124  119  120 ar  
   125  119  121 ar  
   126  120  122 ar  
   127  120  129 1   
   128  121  123 ar  
   129  121  130 1   
   130  122  124 ar  
   131  122  131 1   
   132  123  124 ar  
   133  123  132 1   
   134  124  133 1   
   135  134  135 1   
   136  134  140 1   
   137  135  136 1   
   138  135  138 1   
   139  135  141 1   
   140  136  137 2   
   141  136  148 1   
   142  138  139 1   
   143  138  142 1   
   144  138  143 1   
   145  139  140 1   
   146  139  144 1   
   147  139  145 1   
   148  140  146 1   
   149  140  147 1   
   150  148  149 1   
   151  148  157 1   
   152  149  150 1   
   153  149  152 1   
   154  149  158 1   
   155  150  151 2   
   156  150  163 1   
   157  152  153 1   
   158  152  159 1   
   159  152  160 1   
   160  153  154 1   
   161  153  161 1   
   162  153  162 1   
   163  154  155 1   
   164  154  156 1   
   165  163  164 1   
   166  163  168 1   
   167  164  165 1   
   168  164  166 1   
   169  164  167 1   
   170  170  171 1   
   171  170  172 1   
   172  173  174 1   
   173  173  175 1   
@<TRIPOS>SUBSTRUCTURE
     1 MOL         1 TEMP              0 ****  ****    0 ROOT
