@<TRIPOS>MOLECULE
MOL
  189   185     1     0     0
SMALL
resp


@<TRIPOS>ATOM
      1 C1         -0.2780   -3.7710    5.9900 c3        1 MOL     -0.389394
      2 C2          0.5670   -3.4060    4.7280 c         1 MOL      0.726758
      3 O1          0.8240   -2.2570    4.4170 o         1 MOL     -0.621263
      4 H1         -1.1930   -3.1790    5.9980 hc        1 MOL      0.101592
      5 H2         -0.5320   -4.8300    5.9650 hc        1 MOL      0.101592
      6 H3          0.3000   -3.5570    6.8900 hc        1 MOL      0.101592
      7 N1          0.8140   -4.3510    3.8650 n         1 MOL     -0.572277
      8 C3          1.6290   -4.2160    2.6560 c3        1 MOL      0.278541
      9 C4          1.2910   -5.1550    1.5620 c         1 MOL      0.438432
     10 O2          1.2080   -6.4020    1.7660 o         1 MOL     -0.593423
     11 C5          3.1660   -4.2180    2.9890 c3        1 MOL     -0.402720
     12 C6          4.0500   -3.5740    1.8740 c         1 MOL      0.798254
     13 O3          5.2690   -3.8960    1.8370 o         1 MOL     -0.702051
     14 O4          3.5380   -2.8350    1.0270 o         1 MOL     -0.702051
     15 H4          0.5740   -5.3170    4.0670 hn        1 MOL      0.284905
     16 H5          1.3900   -3.2390    2.2270 h1        1 MOL      0.076329
     17 H6          3.3200   -5.2920    3.1550 hc        1 MOL      0.084733
     18 H7          3.2710   -3.6230    3.8930 hc        1 MOL      0.084733
     19 N2          1.2080   -4.6230    0.3030 n         1 MOL     -0.115937
     20 C7          0.9330   -5.4210   -0.9250 c3        1 MOL      0.029538
     21 C8          2.1300   -5.3170   -1.8780 c         1 MOL      0.414381
     22 O5          2.4130   -6.1860   -2.7210 o         1 MOL     -0.565699
     23 C9         -0.3640   -4.9340   -1.5200 c3        1 MOL      0.246182
     24 C10        -1.6300   -5.3070   -0.6300 c3        1 MOL      0.020188
     25 C11        -0.5700   -5.4190   -2.9660 c3        1 MOL     -0.331202
     26 C12        -2.7980   -4.2970   -0.8280 c3        1 MOL     -0.264170
     27 H8          1.0970   -3.6260    0.3540 hn        1 MOL      0.002933
     28 H9          0.7100   -6.4590   -0.6880 h1        1 MOL      0.042131
     29 H10        -0.3750   -3.8530   -1.5680 hc        1 MOL      0.070476
     30 H11        -1.3030   -5.2240    0.4050 hc        1 MOL     -0.012560
     31 H12        -1.8230   -6.3720   -0.7460 hc        1 MOL     -0.012560
     32 H13        -1.5760   -5.1630   -3.2690 hc        1 MOL      0.065045
     33 H14         0.1310   -4.9670   -3.6710 hc        1 MOL      0.065045
     34 H15        -0.5140   -6.5080   -3.0210 hc        1 MOL      0.065045
     35 H16        -3.6030   -4.5830   -0.1540 hc        1 MOL      0.058729
     36 H17        -2.5560   -3.2690   -0.5490 hc        1 MOL      0.058729
     37 H18        -3.3320   -4.3210   -1.7730 hc        1 MOL      0.058729
     38 N3          2.8500   -4.1910   -1.8810 n         1 MOL     -0.262216
     39 C13         3.6990   -3.7390   -3.0550 c3        1 MOL     -0.017595
     40 C14         5.0290   -3.0710   -2.7080 c         1 MOL      0.545261
     41 O6          5.6900   -2.7520   -3.6880 o         1 MOL     -0.557112
     42 C15         2.9250   -2.8740   -4.0240 c3        1 MOL     -0.180625
     43 C16         2.3390   -1.7190   -3.3580 c         1 MOL      0.792448
     44 O7          2.6620   -1.4240   -2.1610 o         1 MOL     -0.728719
     45 O8          1.5830   -0.9920   -4.0310 o         1 MOL     -0.728719
     46 H19         2.6740   -3.4890   -1.1860 hn        1 MOL      0.115939
     47 H20         4.0980   -4.6220   -3.5530 h1        1 MOL      0.085756
     48 H21         2.0320   -3.4340   -4.2890 hc        1 MOL      0.060745
     49 H22         3.4950   -2.5730   -4.8940 hc        1 MOL      0.060745
     50 N4          5.4920   -2.9990   -1.4460 n         1 MOL     -0.364034
     51 C17         6.8710   -2.7650   -1.1130 c3        1 MOL     -0.007483
     52 C18         7.5590   -1.5250   -1.5700 c         1 MOL      0.409037
     53 O9          8.7640   -1.4500   -1.6430 o         1 MOL     -0.561732
     54 H23         4.9520   -3.4920   -0.7500 hn        1 MOL      0.241664
     55 H24         7.4860   -3.5550   -1.5440 h1        1 MOL      0.060091
     56 H25         7.0560   -2.8670   -0.0430 h1        1 MOL      0.060091
     57 N5          6.6500   -0.5260   -1.7460 n         1 MOL     -0.078965
     58 C19         7.0720    0.8760   -2.0840 c3        1 MOL     -0.090042
     59 C20         7.3510    1.7960   -0.8300 c         1 MOL      0.366027
     60 O10         7.9410    2.9190   -0.9870 o         1 MOL     -0.545716
     61 C21         6.0470    1.5630   -2.9210 c3        1 MOL     -0.111183
     62 C22         4.6700    1.7320   -2.2360 c         1 MOL      0.754446
     63 O11         4.4160    1.2900   -1.1030 o         1 MOL     -0.694247
     64 O12         3.7350    2.3100   -2.8210 o         1 MOL     -0.694247
     65 H26         5.6880   -0.8140   -1.6540 hn        1 MOL      0.080038
     66 H27         8.0540    0.8000   -2.5600 h1        1 MOL      0.116049
     67 H28         5.9380    1.0010   -3.8460 hc        1 MOL      0.044404
     68 H29         6.3010    2.5460   -3.3150 hc        1 MOL      0.044404
     69 N6          7.0250    1.3150    0.3510 n         1 MOL     -0.116940
     70 C23         7.1800    2.1470    1.5260 c3        1 MOL     -0.291158
     71 C24         6.1030    3.2210    1.7330 c         1 MOL      0.549906
     72 O13         6.2420    4.1030    2.6400 o         1 MOL     -0.588646
     73 H30         6.5830    0.3970    0.3450 hn        1 MOL      0.144557
     74 H31         8.1950    2.5390    1.5370 h1        1 MOL      0.121750
     75 H32         7.0690    1.4140    2.3300 h1        1 MOL      0.121750
     76 N7          5.0760    3.2340    0.8260 n         1 MOL     -0.297778
     77 C25         3.8830    4.1120    1.0250 c3        1 MOL     -0.076213
     78 C26         2.5370    3.3290    1.1410 c         1 MOL      0.741484
     79 O14         2.4940    2.1040    1.1170 o         1 MOL     -0.640286
     80 C27         3.8190    5.0830   -0.1480 c3        1 MOL     -0.186073
     81 C28         5.1950    5.7710   -0.3710 c3        1 MOL     -0.177948
     82 C29         5.2350    6.8590   -1.4090 c         1 MOL      0.711251
     83 N8          6.1760    7.7340   -1.3550 n         1 MOL     -0.849841
     84 O15         4.4130    6.9790   -2.2820 o         1 MOL     -0.571232
     85 H33         5.0210    2.4970    0.1450 hn        1 MOL      0.295530
     86 H34         3.8820    4.6450    1.9670 h1        1 MOL      0.062852
     87 H35         3.0910    5.8650    0.0580 hc        1 MOL      0.086026
     88 H36         3.4520    4.6070   -1.0650 hc        1 MOL      0.086026
     89 H37         5.9850    5.0630   -0.6050 hc        1 MOL      0.070795
     90 H38         5.6650    6.1850    0.5160 hc        1 MOL      0.070795
     91 H39         6.7800    7.6850   -0.5480 hn        1 MOL      0.362873
     92 H40         6.4450    8.1040   -2.2560 hn        1 MOL      0.362873
     93 N9          1.4620    4.1130    1.3710 n         1 MOL     -0.551714
     94 C30         0.1970    3.5250    1.8380 c3        1 MOL      0.030442
     95 C31        -1.0090    3.7540    0.9020 c         1 MOL      0.592613
     96 O16        -1.3150    4.9400    0.6460 o         1 MOL     -0.600706
     97 C32        -0.2030    3.9380    3.2630 c3        1 MOL      0.228191
     98 C33        -1.6050    3.4930    3.6880 c3        1 MOL     -0.307095
     99 C34         0.7210    3.2800    4.3310 c3        1 MOL     -0.307095
    100 H41         1.6380    5.0900    1.5400 hn        1 MOL      0.314530
    101 H42         0.2800    2.4400    1.7650 h1        1 MOL      0.094366
    102 H43        -0.0370    5.0070    3.4110 hc        1 MOL     -0.031583
    103 H44        -1.6770    3.3210    4.7590 hc        1 MOL      0.065451
    104 H45        -2.3270    4.2500    3.3740 hc        1 MOL      0.065451
    105 H46        -1.8210    2.5910    3.1210 hc        1 MOL      0.065451
    106 H47         1.7500    3.5060    4.0780 hc        1 MOL      0.065451
    107 H48         0.4710    3.5650    5.3460 hc        1 MOL      0.065451
    108 H49         0.5720    2.2010    4.2220 hc        1 MOL      0.065451
    109 N10        -1.5100    2.7070    0.2170 n         1 MOL     -0.482296
    110 C35        -2.6730    2.6860   -0.6370 c3        1 MOL      0.198190
    111 C36        -3.9670    2.4850    0.1940 c         1 MOL      0.084654
    112 O17        -4.0220    1.9240    1.2570 o         1 MOL     -0.166761
    113 C37        -2.5070    1.6110   -1.7430 c3        1 MOL     -0.253533
    114 C38        -3.7080    1.5240   -2.6400 c         1 MOL      0.572832
    115 N11        -3.8660    2.4920   -3.4990 n         1 MOL     -0.605108
    116 O18        -4.3990    0.4700   -2.6220 o         1 MOL     -0.548999
    117 H50        -1.1140    1.8150    0.4560 hn        1 MOL      0.356524
    118 H51        -2.8140    3.6670   -1.1010 h1        1 MOL      0.048674
    119 H52        -2.4570    0.6260   -1.2840 hc        1 MOL      0.137621
    120 H53        -1.6490    1.8310   -2.3610 hc        1 MOL      0.137621
    121 H54        -3.2740    3.3050   -3.5470 hn        1 MOL      0.286616
    122 H55        -4.7100    2.5380   -4.0570 hn        1 MOL      0.286616
    123 N12        -5.1640    2.9470   -0.3300 n         1 MOL     -0.108932
    124 C39        -6.4640    2.8550    0.3700 c3        1 MOL      0.015680
    125 C40        -6.7970    1.4650    0.9060 c         1 MOL      0.415329
    126 O19        -7.3560    1.3210    1.9790 o         1 MOL     -0.531687
    127 C41        -7.6410    3.3580   -0.5630 c3        1 MOL     -0.157289
    128 C42        -7.9490    2.7100   -1.8460 ca        1 MOL      0.254488
    129 C43        -7.2860    3.1910   -2.9880 ca        1 MOL     -0.394875
    130 C44        -8.7330    1.5450   -1.8940 ca        1 MOL     -0.394875
    131 C45        -7.5510    2.5270   -4.1880 ca        1 MOL     -0.145136
    132 C46        -9.0800    0.9110   -3.1030 ca        1 MOL     -0.145136
    133 C47        -8.4830    1.4080   -4.2620 ca        1 MOL      0.278254
    134 O20        -8.5970    0.6870   -5.3960 oh        1 MOL     -0.561776
    135 H56        -5.1470    3.5450   -1.1430 hn        1 MOL      0.107973
    136 H57        -6.3660    3.5830    1.1640 h1        1 MOL      0.070137
    137 H58        -7.3740    4.3820   -0.7920 hc        1 MOL      0.032962
    138 H59        -8.4970    3.3680    0.1080 hc        1 MOL      0.032962
    139 H60        -6.6920    4.0890   -2.8720 ha        1 MOL      0.208473
    140 H61        -9.2130    1.1320   -1.0160 ha        1 MOL      0.208473
    141 H62        -6.9000    2.8420   -4.9930 ha        1 MOL      0.138056
    142 H63        -9.8120    0.1140   -3.2130 ha        1 MOL      0.138056
    143 H64        -9.1110   -0.1130   -5.2250 ho        1 MOL      0.430901
    144 N13        -6.3740    0.4040    0.1600 n         1 MOL     -0.069645
    145 C48        -6.5600   -0.9820    0.6680 c3        1 MOL     -0.127049
    146 C49        -5.6600   -1.3170    1.8730 c         1 MOL      0.372293
    147 O21        -5.9320   -2.2330    2.6620 o         1 MOL     -0.530063
    148 C50        -6.1720   -1.9180   -0.4310 c3        1 MOL      0.464575
    149 C51        -6.9570   -1.9020   -1.7850 c3        1 MOL     -0.512607
    150 C52        -8.3440   -2.4520   -1.7420 c         1 MOL      0.830875
    151 O22        -9.0880   -2.4710   -2.7300 o         1 MOL     -0.755150
    152 O23        -8.8930   -2.6810   -0.6350 o         1 MOL     -0.755150
    153 H65        -6.3840    0.5860   -0.8350 hn        1 MOL      0.225047
    154 H66        -7.5690   -1.1920    1.0430 h1        1 MOL      0.111325
    155 H67        -6.3080   -2.9040    0.0290 hc        1 MOL     -0.093972
    156 H68        -5.1190   -1.7730   -0.6680 hc        1 MOL     -0.093972
    157 H69        -6.4090   -2.5480   -2.4730 hc        1 MOL      0.100994
    158 H70        -6.8840   -0.8820   -2.1750 hc        1 MOL      0.100994
    159 N14        -4.5190   -0.6850    2.0040 n         1 MOL     -0.225440
    160 C53        -3.5390   -0.8330    3.0900 c3        1 MOL      0.045014
    161 C54        -3.8560    0.0350    4.2960 c         1 MOL      0.411260
    162 O24        -3.6690   -0.3140    5.4630 o         1 MOL     -0.573434
    163 C55        -2.1440   -0.5970    2.5510 c3        1 MOL      0.083248
    164 C56        -1.6530   -1.5300    1.3930 c3        1 MOL     -0.155536
    165 C57        -0.3080   -1.1240    0.6790 c         1 MOL      0.765797
    166 O25         0.4490   -1.9890    0.1280 o         1 MOL     -0.749028
    167 O26         0.0110    0.1200    0.5920 o         1 MOL     -0.749028
    168 H71        -4.3720    0.0580    1.3270 hn        1 MOL      0.012970
    169 H72        -3.6270   -1.8450    3.4760 h1        1 MOL      0.083663
    170 H73        -1.3700   -0.7360    3.3040 hc        1 MOL     -0.018130
    171 H74        -2.0710    0.4150    2.1500 hc        1 MOL     -0.018130
    172 H75        -2.3500   -1.4230    0.5680 hc        1 MOL      0.049011
    173 H76        -1.6180   -2.5450    1.8040 hc        1 MOL      0.049011
    174 N15        -4.4730    1.1860    4.0120 n         1 MOL      0.021905
    175 C58        -5.0900    2.1720    4.9340 c3        1 MOL     -0.300168
    176 H77        -5.5210    1.6510    5.7880 h1        1 MOL      0.097906
    177 H78        -4.3290    2.8710    5.2820 h1        1 MOL      0.097906
    178 H79        -5.8740    2.7190    4.4100 h1        1 MOL      0.097906
    179 H80        -4.6950    1.4630    3.0680 hn        1 MOL      0.056375
    180 Ca1         2.6060   -0.3960    0.2440 Ca        1 MOL      1.823556
    181 O27         2.2400   -0.4780    2.7830 oh        1 MOL     -0.901257
    182 O28         1.4480    1.1680   -1.6290 oh        1 MOL     -0.901257
    183 H81         2.5560    0.1730    3.4160 ho        1 MOL      0.422189
    184 H82         2.2130    1.6070   -2.0150 ho        1 MOL      0.422189
    185 H83         1.7290   -1.0940    3.3050 ho        1 MOL      0.422189
    186 H84         1.0590    0.6800   -2.3660 ho        1 MOL      0.422189
    187 O29         5.0330   -0.7110    1.4240 oh        1 MOL     -0.901257
    188 H85         5.1330   -1.6590    1.4000 ho        1 MOL      0.422189
    189 H86         5.5900   -0.4230    2.1380 ho        1 MOL      0.422189
@<TRIPOS>BOND
     1    1    2 1   
     2    1    4 1   
     3    1    5 1   
     4    1    6 1   
     5    2    3 2   
     6    2    7 1   
     7    7    8 1   
     8    7   15 1   
     9    8    9 1   
    10    8   11 1   
    11    8   16 1   
    12    9   10 2   
    13    9   19 1   
    14   11   12 1   
    15   11   17 1   
    16   11   18 1   
    17   12   13 1   
    18   12   14 1   
    19   19   20 1   
    20   19   27 1   
    21   20   21 1   
    22   20   23 1   
    23   20   28 1   
    24   21   22 2   
    25   21   38 1   
    26   23   24 1   
    27   23   25 1   
    28   23   29 1   
    29   24   26 1   
    30   24   30 1   
    31   24   31 1   
    32   25   32 1   
    33   25   33 1   
    34   25   34 1   
    35   26   35 1   
    36   26   36 1   
    37   26   37 1   
    38   38   39 1   
    39   38   46 1   
    40   39   40 1   
    41   39   42 1   
    42   39   47 1   
    43   40   41 2   
    44   40   50 1   
    45   42   43 1   
    46   42   48 1   
    47   42   49 1   
    48   43   44 1   
    49   43   45 1   
    50   50   51 1   
    51   50   54 1   
    52   51   52 1   
    53   51   55 1   
    54   51   56 1   
    55   52   53 2   
    56   52   57 1   
    57   57   58 1   
    58   57   65 1   
    59   58   59 1   
    60   58   61 1   
    61   58   66 1   
    62   59   60 2   
    63   59   69 1   
    64   61   62 1   
    65   61   67 1   
    66   61   68 1   
    67   62   63 1   
    68   62   64 1   
    69   69   70 1   
    70   69   73 1   
    71   70   71 1   
    72   70   74 1   
    73   70   75 1   
    74   71   72 2   
    75   71   76 1   
    76   76   77 1   
    77   76   85 1   
    78   77   78 1   
    79   77   80 1   
    80   77   86 1   
    81   78   79 2   
    82   78   93 1   
    83   80   81 1   
    84   80   87 1   
    85   80   88 1   
    86   81   82 1   
    87   81   89 1   
    88   81   90 1   
    89   82   83 1   
    90   82   84 2   
    91   83   91 1   
    92   83   92 1   
    93   93   94 1   
    94   93  100 1   
    95   94   95 1   
    96   94   97 1   
    97   94  101 1   
    98   95   96 2   
    99   95  109 1   
   100   97   98 1   
   101   97   99 1   
   102   97  102 1   
   103   98  103 1   
   104   98  104 1   
   105   98  105 1   
   106   99  106 1   
   107   99  107 1   
   108   99  108 1   
   109  109  110 1   
   110  109  117 1   
   111  110  111 1   
   112  110  113 1   
   113  110  118 1   
   114  111  112 2   
   115  111  123 1   
   116  113  114 1   
   117  113  119 1   
   118  113  120 1   
   119  114  115 1   
   120  114  116 2   
   121  115  121 1   
   122  115  122 1   
   123  123  124 1   
   124  123  135 1   
   125  124  125 1   
   126  124  127 1   
   127  124  136 1   
   128  125  126 2   
   129  125  144 1   
   130  127  128 1   
   131  127  137 1   
   132  127  138 1   
   133  128  129 ar  
   134  128  130 ar  
   135  129  131 ar  
   136  129  139 1   
   137  130  132 ar  
   138  130  140 1   
   139  131  133 ar  
   140  131  141 1   
   141  132  133 ar  
   142  132  142 1   
   143  133  134 1   
   144  134  143 1   
   145  144  145 1   
   146  144  153 1   
   147  145  146 1   
   148  145  148 1   
   149  145  154 1   
   150  146  147 2   
   151  146  159 1   
   152  148  149 1   
   153  148  155 1   
   154  148  156 1   
   155  149  150 1   
   156  149  157 1   
   157  149  158 1   
   158  150  151 1   
   159  150  152 1   
   160  159  160 1   
   161  159  168 1   
   162  160  161 1   
   163  160  163 1   
   164  160  169 1   
   165  161  162 2   
   166  161  174 1   
   167  163  164 1   
   168  163  170 1   
   169  163  171 1   
   170  164  165 1   
   171  164  172 1   
   172  164  173 1   
   173  165  166 1   
   174  165  167 1   
   175  174  175 1   
   176  174  179 1   
   177  175  176 1   
   178  175  177 1   
   179  175  178 1   
   180  181  183 1   
   181  181  185 1   
   182  182  184 1   
   183  182  186 1   
   184  187  188 1   
   185  187  189 1   
@<TRIPOS>SUBSTRUCTURE
     1 MOL         1 TEMP              0 ****  ****    0 ROOT
