@<TRIPOS>MOLECULE
MOL
  179   176     1     0     0
SMALL
resp


@<TRIPOS>ATOM
      1 C1         -2.0690   -2.5050    5.5990 c3        1 MOL     -0.343835
      2 C2         -1.4810   -2.4460    4.2150 c         1 MOL      0.752256
      3 O1         -2.1790   -2.4030    3.2380 o         1 MOL     -0.631459
      4 H1         -3.0950   -2.8680    5.5410 hc        1 MOL      0.088692
      5 H2         -1.4780   -3.1810    6.2160 hc        1 MOL      0.088692
      6 H3         -2.0610   -1.5080    6.0400 hc        1 MOL      0.088692
      7 N1         -0.1600   -2.3740    4.1160 n         1 MOL     -0.554525
      8 C3          0.5290   -2.1240    2.8620 c3        1 MOL     -0.032151
      9 C4          0.8340   -3.3960    2.0060 c         1 MOL      0.482394
     10 O2          1.7760   -4.1350    2.3190 o         1 MOL     -0.477113
     11 C5          1.9000   -1.5140    3.1690 c3        1 MOL     -0.036996
     12 C6          2.6460   -1.1440    1.8840 c         1 MOL      0.703557
     13 O3          3.7900   -0.7480    1.9980 o         1 MOL     -0.757449
     14 O4          2.0040   -1.2970    0.8200 o         1 MOL     -0.757449
     15 H4          0.3190   -2.4540    5.0000 hn        1 MOL      0.308758
     16 H5         -0.1300   -1.3820    2.4190 h1        1 MOL      0.028739
     17 H6          2.4630   -2.2510    3.7290 hc        1 MOL      0.036202
     18 H7          1.8390   -0.6050    3.7730 hc        1 MOL      0.036202
     19 N2         -0.0350   -3.6540    1.0020 n         1 MOL     -0.268873
     20 C7         -0.1590   -4.9560    0.2600 c3        1 MOL     -0.010938
     21 C8          1.1550   -5.4840   -0.2860 c         1 MOL      0.492342
     22 O5          1.1630   -6.6860   -0.4520 o         1 MOL     -0.570716
     23 C9         -1.1560   -4.8200   -0.8950 c3        1 MOL     -0.494635
     24 C10        -2.6720   -4.6700   -0.4050 c3        1 MOL      0.165974
     25 C11        -3.8130   -4.7760   -1.4850 c3        1 MOL     -0.121749
     26 C12        -3.9170   -6.2610   -1.7970 c3        1 MOL      0.076288
     27 N3         -4.8620   -6.4700   -2.9360 n4        1 MOL     -0.305839
     28 H8         -0.7900   -2.9810    0.9400 hn        1 MOL      0.301652
     29 H9         -0.5930   -5.6440    0.9850 h1        1 MOL      0.092951
     30 H10        -0.9680   -5.6980   -1.5150 hc        1 MOL      0.161982
     31 H11        -0.8460   -3.9410   -1.4690 hc        1 MOL      0.161982
     32 H12        -2.8450   -3.6860    0.0250 hc        1 MOL      0.030663
     33 H13        -2.8810   -5.4210    0.3490 hc        1 MOL      0.030663
     34 H14        -3.4500   -4.2260   -2.3470 hc        1 MOL      0.043817
     35 H15        -4.6800   -4.2730   -1.0640 hc        1 MOL      0.043817
     36 H16        -4.2740   -6.7350   -0.8860 hx        1 MOL      0.075301
     37 H17        -2.9110   -6.6100   -2.0310 hx        1 MOL      0.075301
     38 H18        -4.6560   -5.8130   -3.6700 hn        1 MOL      0.308713
     39 H19        -4.9070   -7.4240   -3.2550 hn        1 MOL      0.308713
     40 H20        -5.8130   -6.1920   -2.7170 hn        1 MOL      0.308713
     41 N4          2.1310   -4.6860   -0.7750 n         1 MOL     -0.162581
     42 C13         3.3810   -5.1660   -1.3620 c3        1 MOL     -0.012236
     43 C14         4.5940   -4.7120   -0.5140 c         1 MOL      0.357515
     44 O6          5.7760   -5.0300   -0.7820 o         1 MOL     -0.510144
     45 C15         3.5250   -4.5600   -2.7620 c3        1 MOL     -0.123982
     46 C16         3.2630   -3.0300   -2.9030 c         1 MOL      0.639333
     47 O7          2.7870   -2.3510   -1.9370 o         1 MOL     -0.701994
     48 O8          3.4980   -2.4790   -4.0230 o         1 MOL     -0.701994
     49 H21         1.9390   -3.6990   -0.8030 hn        1 MOL      0.115400
     50 H22         3.3200   -6.2430   -1.4810 h1        1 MOL      0.111297
     51 H23         2.9400   -5.1680   -3.4550 hc        1 MOL      0.042797
     52 H24         4.5960   -4.6870   -2.9560 hc        1 MOL      0.042797
     53 N5          4.2820   -4.0790    0.6380 n         1 MOL     -0.009326
     54 C17         5.2610   -3.5790    1.6050 c3        1 MOL     -0.269028
     55 C18         6.1690   -2.5450    1.0370 c         1 MOL      0.505910
     56 O9          7.3580   -2.4840    1.2970 o         1 MOL     -0.575508
     57 H25         3.3090   -3.8860    0.7940 hn        1 MOL     -0.024792
     58 H26         5.9550   -4.3620    1.9250 h1        1 MOL      0.129462
     59 H27         4.7310   -3.1190    2.4400 h1        1 MOL      0.129462
     60 N6          5.6920   -1.7210    0.1250 n         1 MOL     -0.044649
     61 C19         6.4950   -0.7660   -0.6750 c3        1 MOL     -0.489245
     62 C20         6.6330    0.6500   -0.0900 c         1 MOL      0.549533
     63 O10         7.3110    1.5050   -0.6020 o         1 MOL     -0.495770
     64 C21         5.8710   -0.6970   -2.0480 c3        1 MOL      0.102636
     65 C22         4.6390    0.1980   -2.2990 c         1 MOL      0.536231
     66 N7          4.6500    0.8530   -3.4350 n         1 MOL     -0.613370
     67 O11         3.8450    0.3790   -1.4210 o         1 MOL     -0.713935
     68 H28         4.6940   -1.5870    0.1420 hn        1 MOL      0.326276
     69 H29         7.5090   -1.1480   -0.7700 h1        1 MOL      0.227582
     70 H30         5.5510   -1.6800   -2.3950 hc        1 MOL      0.034988
     71 H31         6.6470   -0.3920   -2.7440 hc        1 MOL      0.034988
     72 H32         5.4350    0.7810   -4.0570 hn        1 MOL      0.318978
     73 H33         3.8020    1.3540   -3.6900 hn        1 MOL      0.318978
     74 N8          6.0900    0.8890    1.1120 n         1 MOL     -0.305575
     75 C23         6.0560    2.0730    1.8610 c3        1 MOL     -0.191156
     76 C24         4.8370    2.9490    1.6770 c         1 MOL      0.655716
     77 O12         4.8640    3.9930    2.3150 o         1 MOL     -0.601046
     78 H34         5.3710    0.2240    1.3550 hn        1 MOL      0.275153
     79 H35         6.8490    2.7150    1.4700 h1        1 MOL      0.124482
     80 H36         6.3230    1.9860    2.9110 h1        1 MOL      0.124482
     81 N9          3.7740    2.6790    0.9100 n         1 MOL     -0.509924
     82 C25         2.6330    3.6540    0.6630 c3        1 MOL     -0.018910
     83 C26         1.3320    2.9070    0.6560 c         1 MOL      0.693689
     84 O13         1.1610    1.9130   -0.0080 o         1 MOL     -0.612491
     85 C27         2.9280    4.1880   -0.7490 c3        1 MOL      0.041498
     86 C28         4.2620    4.9560   -0.8770 ca        1 MOL     -0.037897
     87 C29         5.4270    4.3250   -1.3910 ca        1 MOL     -0.141619
     88 C30         4.2940    6.2850   -0.4820 ca        1 MOL     -0.141619
     89 C31         6.6410    5.0130   -1.3900 ca        1 MOL     -0.261980
     90 C32         5.5000    7.0500   -0.4510 ca        1 MOL     -0.261980
     91 C33         6.7250    6.3490   -0.9210 ca        1 MOL      0.370559
     92 O14         7.8930    7.0750   -0.8410 oh        1 MOL     -0.509210
     93 H37         3.8400    1.7820    0.4420 hn        1 MOL      0.385063
     94 H38         2.6260    4.4530    1.3980 h1        1 MOL      0.126909
     95 H39         2.1450    4.8480   -1.1230 hc        1 MOL     -0.004366
     96 H40         2.9740    3.3980   -1.5040 hc        1 MOL     -0.004366
     97 H41         5.4840    3.3120   -1.7620 ha        1 MOL      0.121969
     98 H42         3.4110    6.8010   -0.1360 ha        1 MOL      0.121969
     99 H43         7.4860    4.5470   -1.8860 ha        1 MOL      0.148080
    100 H44         5.5260    8.1100   -0.2480 ha        1 MOL      0.148080
    101 H45         7.7970    7.9100   -0.3630 ho        1 MOL      0.370725
    102 N10         0.3630    3.2690    1.4900 n         1 MOL     -0.632226
    103 C34        -0.9990    2.7290    1.6260 c3        1 MOL      0.108547
    104 C35        -1.9490    3.5300    0.6450 c         1 MOL      0.498900
    105 O15        -2.1340    4.7400    0.8110 o         1 MOL     -0.587846
    106 C36        -1.4860    2.7230    3.1610 c3        1 MOL      0.242572
    107 C37        -0.6040    1.7540    3.9980 c3        1 MOL     -0.049923
    108 C38        -2.9440    2.3190    3.2640 c3        1 MOL     -0.324979
    109 C39        -0.7950    1.9510    5.5970 c3        1 MOL     -0.349233
    110 H46         0.6470    3.9630    2.1690 hn        1 MOL      0.287908
    111 H47        -1.0710    1.6920    1.3040 h1        1 MOL      0.084179
    112 H48        -1.4320    3.7410    3.5490 hc        1 MOL      0.000441
    113 H49         0.4130    1.7840    3.5960 hc        1 MOL      0.045707
    114 H50        -0.8300    0.7220    3.7300 hc        1 MOL      0.045707
    115 H51        -3.2390    2.4270    4.3070 hc        1 MOL      0.065818
    116 H52        -3.5810    2.9580    2.6540 hc        1 MOL      0.065818
    117 H53        -3.1040    1.2950    2.9180 hc        1 MOL      0.065818
    118 H54        -0.1380    1.2500    6.1260 hc        1 MOL      0.099246
    119 H55        -0.5810    3.0020    5.7600 hc        1 MOL      0.099246
    120 H56        -1.8370    1.7480    5.8670 hc        1 MOL      0.099246
    121 N11        -2.6560    2.8510   -0.2300 n         1 MOL     -0.110027
    122 C40        -3.5330    3.5110   -1.2270 c3        1 MOL     -0.020606
    123 C41        -5.0230    3.3030   -0.7290 c         1 MOL      0.416485
    124 O16        -5.2960    2.4510    0.1810 o         1 MOL     -0.387867
    125 C42        -3.3590    2.8340   -2.5590 c3        1 MOL      0.089761
    126 O17        -4.2640    3.2130   -3.5370 oh        1 MOL     -0.605200
    127 H57        -2.3670    1.8980   -0.4280 hn        1 MOL      0.044246
    128 H58        -3.3390    4.5890   -1.3280 h1        1 MOL      0.074910
    129 H59        -3.5020    1.7510   -2.4610 h1        1 MOL      0.089568
    130 H60        -2.3810    3.1470   -2.9190 h1        1 MOL      0.089568
    131 H61        -4.2670    4.1750   -3.4980 ho        1 MOL      0.385247
    132 N12        -6.0140    4.0980   -1.2410 n         1 MOL     -0.440439
    133 C43        -7.3900    4.0860   -0.7790 c3        1 MOL      0.197876
    134 C44        -7.9530    2.6590   -0.8720 c         1 MOL      0.360303
    135 O18        -8.6560    2.2270    0.0070 o         1 MOL     -0.522357
    136 C45        -8.2480    5.0430   -1.5940 c3        1 MOL     -0.377836
    137 H62        -5.7840    4.8780   -1.8490 hn        1 MOL      0.271329
    138 H63        -7.3670    4.2800    0.2920 h1        1 MOL      0.082360
    139 H64        -8.0490    6.0900   -1.3610 hc        1 MOL      0.117456
    140 H65        -8.2150    4.7860   -2.6480 hc        1 MOL      0.117456
    141 H66        -9.3040    4.9250   -1.3210 hc        1 MOL      0.117456
    142 N13        -7.5450    1.8120   -1.8110 n         1 MOL     -0.145613
    143 C46        -7.9620    0.4220   -2.0640 c3        1 MOL      0.047773
    144 C47        -7.2400   -0.5820   -1.1230 c         1 MOL      0.315503
    145 O19        -7.6750   -1.7350   -1.0850 o         1 MOL     -0.516984
    146 C48        -7.5950    0.0200   -3.5080 c3        1 MOL     -0.355595
    147 H67        -7.0950    2.2110   -2.6260 hn        1 MOL      0.161008
    148 H68        -9.0480    0.3500   -2.0270 h1        1 MOL      0.116371
    149 H69        -8.3460    0.3590   -4.2150 hc        1 MOL      0.107366
    150 H70        -6.6230    0.3820   -3.8470 hc        1 MOL      0.107366
    151 H71        -7.4070   -1.0520   -3.5630 hc        1 MOL      0.107366
    152 N14        -6.1040   -0.2380   -0.5000 n         1 MOL     -0.010935
    153 C49        -5.4520   -1.0920    0.5480 c3        1 MOL     -0.270269
    154 C50        -6.0600   -0.8700    1.9680 c         1 MOL      0.493605
    155 O20        -6.2270   -1.8160    2.7490 o         1 MOL     -0.538702
    156 C51        -3.9540   -0.8100    0.6140 c3        1 MOL      0.148714
    157 C52        -3.3540   -0.8740   -0.8360 c3        1 MOL     -0.044486
    158 C53        -1.8390   -0.6970   -0.7880 c         1 MOL      0.724148
    159 O21        -1.0450   -1.6730   -0.5470 o         1 MOL     -0.738733
    160 O22        -1.3590    0.4220   -0.9570 o         1 MOL     -0.738733
    161 H72        -5.8800    0.7500   -0.4970 hn        1 MOL      0.075956
    162 H73        -5.6420   -2.1500    0.3560 h1        1 MOL      0.136714
    163 H74        -3.5240   -1.5590    1.2790 hc        1 MOL      0.018541
    164 H75        -3.8100    0.1840    1.0440 hc        1 MOL      0.018541
    165 H76        -3.8510   -0.1620   -1.4910 hc        1 MOL     -0.020544
    166 H77        -3.5510   -1.8900   -1.1720 hc        1 MOL     -0.020544
    167 N15        -6.5430    0.3630    2.2660 n         1 MOL     -0.106879
    168 C54        -7.2300    0.6800    3.5490 c3        1 MOL     -0.305025
    169 H78        -8.2190    0.2220    3.5530 h1        1 MOL      0.126172
    170 H79        -6.6460    0.2890    4.3810 h1        1 MOL      0.126172
    171 H80        -7.3310    1.7610    3.6500 h1        1 MOL      0.126172
    172 H81        -6.3460    0.9970    1.5130 hn        1 MOL      0.136277
    173 Ca1         1.1480   -0.3110   -1.3920 Ca        1 MOL      1.786605
    174 O23         1.2070    1.7050   -3.0980 oh        1 MOL     -0.872026
    175 H82         1.2870    2.6480   -2.9680 ho        1 MOL      0.427728
    176 H83         1.3680    1.5760   -4.0310 ho        1 MOL      0.427728
    177 O24        -0.1480   -1.0800   -3.6680 oh        1 MOL     -0.872026
    178 H84        -0.1180   -1.9480   -4.0910 ho        1 MOL      0.427728
    179 H85        -0.1710   -0.4700   -4.4000 ho        1 MOL      0.427728
@<TRIPOS>BOND
     1    1    2 1   
     2    1    4 1   
     3    1    5 1   
     4    1    6 1   
     5    2    3 2   
     6    2    7 1   
     7    7    8 1   
     8    7   15 1   
     9    8    9 1   
    10    8   11 1   
    11    8   16 1   
    12    9   10 2   
    13    9   19 1   
    14   11   12 1   
    15   11   17 1   
    16   11   18 1   
    17   12   13 1   
    18   12   14 1   
    19   19   20 1   
    20   19   28 1   
    21   20   21 1   
    22   20   23 1   
    23   20   29 1   
    24   21   22 2   
    25   21   41 1   
    26   23   24 1   
    27   23   30 1   
    28   23   31 1   
    29   24   25 1   
    30   24   32 1   
    31   24   33 1   
    32   25   26 1   
    33   25   34 1   
    34   25   35 1   
    35   26   27 1   
    36   26   36 1   
    37   26   37 1   
    38   27   38 1   
    39   27   39 1   
    40   27   40 1   
    41   41   42 1   
    42   41   49 1   
    43   42   43 1   
    44   42   45 1   
    45   42   50 1   
    46   43   44 2   
    47   43   53 1   
    48   45   46 1   
    49   45   51 1   
    50   45   52 1   
    51   46   47 1   
    52   46   48 1   
    53   53   54 1   
    54   53   57 1   
    55   54   55 1   
    56   54   58 1   
    57   54   59 1   
    58   55   56 2   
    59   55   60 1   
    60   60   61 1   
    61   60   68 1   
    62   61   62 1   
    63   61   64 1   
    64   61   69 1   
    65   62   63 2   
    66   62   74 1   
    67   64   65 1   
    68   64   70 1   
    69   64   71 1   
    70   65   66 1   
    71   65   67 2   
    72   66   72 1   
    73   66   73 1   
    74   74   75 1   
    75   74   78 1   
    76   75   76 1   
    77   75   79 1   
    78   75   80 1   
    79   76   77 2   
    80   76   81 1   
    81   81   82 1   
    82   81   93 1   
    83   82   83 1   
    84   82   85 1   
    85   82   94 1   
    86   83   84 2   
    87   83  102 1   
    88   85   86 1   
    89   85   95 1   
    90   85   96 1   
    91   86   87 ar  
    92   86   88 ar  
    93   87   89 ar  
    94   87   97 1   
    95   88   90 ar  
    96   88   98 1   
    97   89   91 ar  
    98   89   99 1   
    99   90   91 ar  
   100   90  100 1   
   101   91   92 1   
   102   92  101 1   
   103  102  103 1   
   104  102  110 1   
   105  103  104 1   
   106  103  106 1   
   107  103  111 1   
   108  104  105 2   
   109  104  121 1   
   110  106  107 1   
   111  106  108 1   
   112  106  112 1   
   113  107  109 1   
   114  107  113 1   
   115  107  114 1   
   116  108  115 1   
   117  108  116 1   
   118  108  117 1   
   119  109  118 1   
   120  109  119 1   
   121  109  120 1   
   122  121  122 1   
   123  121  127 1   
   124  122  123 1   
   125  122  125 1   
   126  122  128 1   
   127  123  124 2   
   128  123  132 1   
   129  125  126 1   
   130  125  129 1   
   131  125  130 1   
   132  126  131 1   
   133  132  133 1   
   134  132  137 1   
   135  133  134 1   
   136  133  136 1   
   137  133  138 1   
   138  134  135 2   
   139  134  142 1   
   140  136  139 1   
   141  136  140 1   
   142  136  141 1   
   143  142  143 1   
   144  142  147 1   
   145  143  144 1   
   146  143  146 1   
   147  143  148 1   
   148  144  145 2   
   149  144  152 1   
   150  146  149 1   
   151  146  150 1   
   152  146  151 1   
   153  152  153 1   
   154  152  161 1   
   155  153  154 1   
   156  153  156 1   
   157  153  162 1   
   158  154  155 2   
   159  154  167 1   
   160  156  157 1   
   161  156  163 1   
   162  156  164 1   
   163  157  158 1   
   164  157  165 1   
   165  157  166 1   
   166  158  159 1   
   167  158  160 1   
   168  167  168 1   
   169  167  172 1   
   170  168  169 1   
   171  168  170 1   
   172  168  171 1   
   173  174  175 1   
   174  174  176 1   
   175  177  178 1   
   176  177  179 1   
@<TRIPOS>SUBSTRUCTURE
     1 MOL         1 TEMP              0 ****  ****    0 ROOT
