@<TRIPOS>MOLECULE
MOL
  175   173     1     0     0
SMALL
resp


@<TRIPOS>ATOM
      1 C1          0.7230    5.2760    4.8180 c3        1 MOL     -0.416559
      2 C2          0.0710    4.6950    3.5260 c         1 MOL      0.655939
      3 O1          0.7450    4.6360    2.5070 o         1 MOL     -0.547765
      4 H1          1.2390    4.4790    5.3540 hc        1 MOL      0.103375
      5 H2          1.4380    6.0520    4.5470 hc        1 MOL      0.103375
      6 H3         -0.0510    5.7000    5.4570 hc        1 MOL      0.103375
      7 N1         -1.2320    4.4610    3.5070 n         1 MOL     -0.521399
      8 C3         -1.9750    3.8980    2.3350 c3        1 MOL      0.103087
      9 C4         -2.1350    5.0220    1.2440 c         1 MOL      0.694626
     10 O2         -2.5320    6.0960    1.6520 o         1 MOL     -0.593229
     11 C5         -3.3660    3.3330    2.8020 c3        1 MOL     -0.480651
     12 C6         -4.1450    2.4060    1.8680 c         1 MOL      0.887994
     13 O3         -5.2440    2.0200    2.2450 o         1 MOL     -0.684857
     14 O4         -3.6380    2.0940    0.7730 o         1 MOL     -0.684857
     15 H4         -1.6840    4.4120    4.4070 hn        1 MOL      0.295689
     16 H5         -1.3550    3.0750    1.9820 h1        1 MOL      0.091125
     17 H6         -3.9590    4.2400    2.8690 hc        1 MOL      0.099605
     18 H7         -3.2470    2.9120    3.8030 hc        1 MOL      0.099605
     19 N2         -1.7820    4.6010    0.0260 n         1 MOL     -0.613481
     20 C7         -1.7130    5.3750   -1.2320 c3        1 MOL      0.243171
     21 C8         -2.8150    4.8730   -2.2250 c         1 MOL      0.501218
     22 O5         -3.1080    5.6460   -3.0880 o         1 MOL     -0.584047
     23 C9         -0.2490    5.3610   -1.7950 c3        1 MOL     -0.233036
     24 H8         -1.5590    3.6220   -0.0370 hn        1 MOL      0.423911
     25 H9         -2.0700    6.3960   -1.0660 h1        1 MOL      0.018427
     26 H10         0.4360    6.1140   -1.4060 hc        1 MOL      0.057001
     27 H11         0.2540    4.4210   -1.5350 hc        1 MOL      0.057001
     28 H12        -0.3150    5.4990   -2.8770 hc        1 MOL      0.057001
     29 N3         -3.3880    3.6800   -2.1150 n         1 MOL     -0.224771
     30 C10        -4.4380    3.2320   -3.0750 c3        1 MOL      0.054391
     31 C11        -5.6950    2.4970   -2.4990 c         1 MOL      0.314957
     32 O6         -6.6850    2.3920   -3.2990 o         1 MOL     -0.530999
     33 C12        -3.8530    2.3040   -4.1300 c3        1 MOL     -0.267253
     34 C13        -3.1140    1.1520   -3.4810 c         1 MOL      0.706972
     35 O7         -3.4250    0.7730   -2.3170 o         1 MOL     -0.683165
     36 O8         -2.2210    0.5630   -4.1490 o         1 MOL     -0.683165
     37 H13        -3.1340    3.1550   -1.2940 hn        1 MOL      0.053335
     38 H14        -4.8160    4.0940   -3.6430 h1        1 MOL      0.093416
     39 H15        -3.0750    2.9040   -4.6110 hc        1 MOL      0.080123
     40 H16        -4.6150    1.9120   -4.8040 hc        1 MOL      0.080123
     41 N4         -5.7480    2.0600   -1.2370 n         1 MOL     -0.130847
     42 C14        -6.8490    1.3130   -0.7020 c3        1 MOL     -0.194819
     43 C15        -7.0540   -0.0510   -1.2680 c         1 MOL      0.564476
     44 O9         -8.1800   -0.5130   -1.1950 o         1 MOL     -0.604397
     45 H17        -4.9190    2.0830   -0.6560 hn        1 MOL      0.108832
     46 H18        -7.7030    1.9350   -0.9670 h1        1 MOL      0.103245
     47 H19        -6.7400    1.2570    0.3810 h1        1 MOL      0.103245
     48 N5         -5.9950   -0.7460   -1.7660 n         1 MOL     -0.339741
     49 C16        -6.1130   -2.1680   -2.2160 c3        1 MOL      0.011894
     50 C17        -6.1930   -3.2250   -1.0390 c         1 MOL      0.397628
     51 O10        -6.0900   -4.3940   -1.3790 o         1 MOL     -0.532500
     52 C18        -5.0340   -2.3880   -3.2010 c3        1 MOL     -0.137226
     53 C19        -3.7180   -2.5000   -2.5240 c         1 MOL      0.543424
     54 N6         -2.6780   -2.6880   -3.3500 n         1 MOL     -0.738208
     55 O11        -3.5590   -2.4420   -1.2670 o         1 MOL     -0.446759
     56 H20        -5.1050   -0.3110   -1.9270 hn        1 MOL      0.259669
     57 H21        -7.0430   -2.2910   -2.7530 h1        1 MOL      0.096782
     58 H22        -4.9750   -1.5550   -3.9070 hc        1 MOL      0.066509
     59 H23        -5.2990   -3.2330   -3.8450 hc        1 MOL      0.066509
     60 H24        -2.7200   -2.5480   -4.3490 hn        1 MOL      0.377305
     61 H25        -1.7720   -2.6440   -2.8920 hn        1 MOL      0.377305
     62 N7         -6.4100   -2.9080    0.2150 n         1 MOL     -0.190556
     63 C20        -6.5660   -3.8730    1.3640 c3        1 MOL     -0.316331
     64 C21        -5.2980   -4.4440    2.0090 c         1 MOL      0.515772
     65 O12        -5.3620   -5.2190    2.9750 o         1 MOL     -0.578015
     66 H26        -6.2870   -1.9240    0.4170 hn        1 MOL      0.199560
     67 H27        -7.0480   -4.7710    0.9630 h1        1 MOL      0.154369
     68 H28        -7.2320   -3.3690    2.0710 h1        1 MOL      0.154369
     69 N8         -4.1000   -4.0440    1.5670 n         1 MOL     -0.110893
     70 C22        -2.7470   -4.3840    2.0990 c3        1 MOL     -0.258738
     71 C23        -1.7890   -3.2110    2.0480 c         1 MOL      0.591482
     72 O13        -2.0980   -2.2430    1.3450 o         1 MOL     -0.625692
     73 C24        -2.1770   -5.5250    1.1740 c3        1 MOL      0.617494
     74 C25        -3.0270   -6.8450    1.2620 c3        1 MOL     -0.471662
     75 O14        -2.1110   -5.1310   -0.1700 oh        1 MOL     -0.596721
     76 H29        -4.0650   -3.5070    0.7120 hn        1 MOL      0.116459
     77 H30        -2.8200   -4.7630    3.1260 h1        1 MOL      0.113601
     78 H31        -1.1730   -5.8090    1.4830 h1        1 MOL     -0.076011
     79 H32        -1.9850   -4.1890   -0.1350 ho        1 MOL      0.348267
     80 H33        -4.0690   -6.7130    0.9560 hc        1 MOL      0.112509
     81 H34        -2.5120   -7.5680    0.6180 hc        1 MOL      0.112509
     82 H35        -2.9340   -7.0760    2.3150 hc        1 MOL      0.112509
     83 N9         -0.5980   -3.3220    2.7020 n         1 MOL     -0.578001
     84 C26         0.5630   -2.5730    2.3950 c3        1 MOL      0.259558
     85 C27         1.2810   -3.1530    1.1770 c         1 MOL      0.422435
     86 O15         1.4940   -4.3470    1.0140 o         1 MOL     -0.557728
     87 C28         1.4390   -2.2790    3.6510 c3        1 MOL      0.034688
     88 C29         1.0650   -0.8560    4.1520 c3        1 MOL     -0.045515
     89 C30         2.9370   -2.3820    3.4050 c3        1 MOL     -0.300153
     90 C31         1.7930   -0.6500    5.5080 c3        1 MOL     -0.163428
     91 H36        -0.4720   -4.1120    3.3180 hn        1 MOL      0.278629
     92 H37         0.2430   -1.5970    2.0210 h1        1 MOL     -0.007338
     93 H38         1.0500   -2.9550    4.4170 hc        1 MOL      0.034875
     94 H39        -0.0160   -0.8340    4.3310 hc        1 MOL      0.023091
     95 H40         1.3630   -0.0420    3.4960 hc        1 MOL      0.023091
     96 H41         3.5740   -2.1960    4.2730 hc        1 MOL      0.063930
     97 H42         3.1810   -3.3720    3.0430 hc        1 MOL      0.063930
     98 H43         3.2580   -1.5370    2.8110 hc        1 MOL      0.063930
     99 H44         1.6170   -1.4880    6.1890 hc        1 MOL      0.034998
    100 H45         2.8770   -0.5430    5.4310 hc        1 MOL      0.034998
    101 H46         1.4910    0.2830    5.9780 hc        1 MOL      0.034998
    102 N10         1.6940   -2.1760    0.4320 n         1 MOL     -0.111002
    103 C32         2.5180   -2.2010   -0.6870 c3        1 MOL      0.005040
    104 C33         4.0530   -1.7180   -0.4640 c         1 MOL      0.375270
    105 O16         4.3570   -1.0130    0.5320 o         1 MOL     -0.354532
    106 C34         1.7940   -1.3900   -1.8090 c3        1 MOL     -0.103004
    107 C35         0.3080   -1.7310   -2.0850 c         1 MOL      0.645472
    108 O17        -0.6000   -1.2440   -1.3760 o         1 MOL     -0.646664
    109 O18         0.1480   -2.5040   -3.0550 o         1 MOL     -0.646664
    110 H47         1.3570   -1.2450    0.6370 hn        1 MOL      0.170774
    111 H48         2.4370   -3.2130   -1.0780 h1        1 MOL      0.060488
    112 H49         2.3290   -1.5160   -2.7430 hc        1 MOL      0.023162
    113 H50         1.9740   -0.3180   -1.7360 hc        1 MOL      0.023162
    114 N11         5.0090   -2.0060   -1.3560 n         1 MOL     -0.611333
    115 C36         6.4170   -1.6940   -1.1860 c3        1 MOL      0.426265
    116 C37         6.7390   -0.1880   -1.0620 c         1 MOL      0.249397
    117 O19         7.5340    0.0990   -0.1080 o         1 MOL     -0.473717
    118 C38         7.2580   -2.3300   -2.3590 c3        1 MOL     -0.301183
    119 C39         8.7420   -2.3820   -2.1740 ca        1 MOL      0.075037
    120 C40         9.4120   -2.6100   -0.9780 ca        1 MOL     -0.088426
    121 C41         9.5110   -1.9400   -3.2730 ca        1 MOL     -0.088426
    122 C42        10.7870   -2.6790   -0.9000 ca        1 MOL     -0.201364
    123 C43        10.9410   -1.9900   -3.1860 ca        1 MOL     -0.201364
    124 C44        11.6000   -2.3660   -1.9890 ca        1 MOL     -0.028452
    125 H51         4.6620   -2.4700   -2.1800 hn        1 MOL      0.324667
    126 H52         6.7700   -2.0820   -0.2330 h1        1 MOL      0.052431
    127 H53         7.0120   -1.9080   -3.3270 hc        1 MOL      0.091695
    128 H54         6.9780   -3.3840   -2.4520 hc        1 MOL      0.091695
    129 H55         8.9220   -2.7940   -0.0370 ha        1 MOL      0.100705
    130 H56         8.9810   -1.6710   -4.1740 ha        1 MOL      0.100705
    131 H57        11.2890   -2.8460    0.0440 ha        1 MOL      0.124453
    132 H58        11.4690   -1.5860   -4.0320 ha        1 MOL      0.124453
    133 H59        12.6720   -2.4000   -1.9220 ha        1 MOL      0.087987
    134 N12         6.1670    0.8060   -1.8190 n         1 MOL     -0.036272
    135 C45         6.3890    2.1930   -1.4640 c3        1 MOL      0.008813
    136 C46         5.8080    2.6740   -0.1220 c         1 MOL      0.333062
    137 O20         6.3900    3.5850    0.4940 o         1 MOL     -0.492958
    138 C47         5.8120    3.0250   -2.6680 c3        1 MOL     -0.210732
    139 C48         4.7560    2.1590   -3.2630 c3        1 MOL      0.144058
    140 C49         5.3250    0.7670   -2.9550 c3        1 MOL     -0.076682
    141 H60         7.4700    2.2700   -1.3470 h1        1 MOL      0.065743
    142 H61         5.3730    3.9770   -2.3730 hc        1 MOL      0.074680
    143 H62         6.6220    3.1610   -3.3800 hc        1 MOL      0.074680
    144 H63         3.7910    2.2990   -2.7590 hc        1 MOL      0.000700
    145 H64         4.5880    2.3710   -4.3120 hc        1 MOL      0.000700
    146 H65         4.4400    0.1540   -2.8270 h1        1 MOL      0.028485
    147 H66         5.8690    0.4140   -3.8340 h1        1 MOL      0.028485
    148 N13         4.6750    2.0660    0.2650 n         1 MOL     -0.113496
    149 C50         3.9620    2.4160    1.5060 c3        1 MOL     -0.164937
    150 C51         4.7300    1.7620    2.6900 c         1 MOL      0.407173
    151 O21         4.8970    2.3980    3.7810 o         1 MOL     -0.555747
    152 C52         2.5170    1.8740    1.5050 c3        1 MOL     -0.020265
    153 C53         1.6090    2.2960    0.4000 c3        1 MOL     -0.177315
    154 C54         0.2520    1.5760    0.4700 c         1 MOL      0.470441
    155 O22         0.1540    0.5510    1.1870 o         1 MOL     -0.651097
    156 O23        -0.6790    1.9700   -0.2750 o         1 MOL     -0.651097
    157 H67         4.2590    1.4230   -0.3980 hn        1 MOL      0.202376
    158 H68         3.9450    3.5010    1.6390 h1        1 MOL      0.138066
    159 H69         1.9760    2.1820    2.4000 hc        1 MOL      0.089792
    160 H70         2.5900    0.7840    1.4800 hc        1 MOL      0.089792
    161 H71         1.9430    2.0340   -0.6050 hc        1 MOL      0.080949
    162 H72         1.5620    3.3810    0.4620 hc        1 MOL      0.080949
    163 N14         5.3120    0.5290    2.6130 n         1 MOL      0.002480
    164 C55         6.2960   -0.0160    3.4880 c3        1 MOL     -0.230251
    165 H73         5.8220   -0.7130    4.1780 h1        1 MOL      0.079956
    166 H74         7.0520   -0.5400    2.9030 h1        1 MOL      0.079956
    167 H75         6.7660    0.7890    4.0530 h1        1 MOL      0.079956
    168 H76         5.0880   -0.0230    1.7990 hn        1 MOL      0.081255
    169 Ca1        -2.3560   -0.0600   -0.1270 Ca        1 MOL      1.594684
    170 O24        -4.6610   -0.4650    1.2970 oh        1 MOL     -0.666653
    171 H77        -4.5340   -1.0520    2.0410 ho        1 MOL      0.338251
    172 H78        -4.7310    0.4070    1.6830 ho        1 MOL      0.338251
    173 O25        -2.0390    0.4920    2.7950 oh        1 MOL     -0.666653
    174 H79        -1.1090    0.6860    2.7000 ho        1 MOL      0.338251
    175 H80        -2.2050    0.5700    3.7370 ho        1 MOL      0.338251
@<TRIPOS>BOND
     1    1    2 1   
     2    1    4 1   
     3    1    5 1   
     4    1    6 1   
     5    2    3 2   
     6    2    7 1   
     7    7    8 1   
     8    7   15 1   
     9    8    9 1   
    10    8   11 1   
    11    8   16 1   
    12    9   10 2   
    13    9   19 1   
    14   11   12 1   
    15   11   17 1   
    16   11   18 1   
    17   12   13 1   
    18   12   14 1   
    19   19   20 1   
    20   19   24 1   
    21   20   21 1   
    22   20   23 1   
    23   20   25 1   
    24   21   22 2   
    25   21   29 1   
    26   23   26 1   
    27   23   27 1   
    28   23   28 1   
    29   29   30 1   
    30   29   37 1   
    31   30   31 1   
    32   30   33 1   
    33   30   38 1   
    34   31   32 2   
    35   31   41 1   
    36   33   34 1   
    37   33   39 1   
    38   33   40 1   
    39   34   35 1   
    40   34   36 1   
    41   41   42 1   
    42   41   45 1   
    43   42   43 1   
    44   42   46 1   
    45   42   47 1   
    46   43   44 2   
    47   43   48 1   
    48   48   49 1   
    49   48   56 1   
    50   49   50 1   
    51   49   52 1   
    52   49   57 1   
    53   50   51 2   
    54   50   62 1   
    55   52   53 1   
    56   52   58 1   
    57   52   59 1   
    58   53   54 1   
    59   53   55 2   
    60   54   60 1   
    61   54   61 1   
    62   62   63 1   
    63   62   66 1   
    64   63   64 1   
    65   63   67 1   
    66   63   68 1   
    67   64   65 2   
    68   64   69 1   
    69   69   70 1   
    70   69   76 1   
    71   70   71 1   
    72   70   73 1   
    73   70   77 1   
    74   71   72 2   
    75   71   83 1   
    76   73   74 1   
    77   73   75 1   
    78   73   78 1   
    79   74   80 1   
    80   74   81 1   
    81   74   82 1   
    82   75   79 1   
    83   83   84 1   
    84   83   91 1   
    85   84   85 1   
    86   84   87 1   
    87   84   92 1   
    88   85   86 2   
    89   85  102 1   
    90   87   88 1   
    91   87   89 1   
    92   87   93 1   
    93   88   90 1   
    94   88   94 1   
    95   88   95 1   
    96   89   96 1   
    97   89   97 1   
    98   89   98 1   
    99   90   99 1   
   100   90  100 1   
   101   90  101 1   
   102  102  103 1   
   103  102  110 1   
   104  103  104 1   
   105  103  106 1   
   106  103  111 1   
   107  104  105 2   
   108  104  114 1   
   109  106  107 1   
   110  106  112 1   
   111  106  113 1   
   112  107  108 1   
   113  107  109 1   
   114  114  115 1   
   115  114  125 1   
   116  115  116 1   
   117  115  118 1   
   118  115  126 1   
   119  116  117 2   
   120  116  134 1   
   121  118  119 1   
   122  118  127 1   
   123  118  128 1   
   124  119  120 ar  
   125  119  121 ar  
   126  120  122 ar  
   127  120  129 1   
   128  121  123 ar  
   129  121  130 1   
   130  122  124 ar  
   131  122  131 1   
   132  123  124 ar  
   133  123  132 1   
   134  124  133 1   
   135  134  135 1   
   136  134  140 1   
   137  135  136 1   
   138  135  138 1   
   139  135  141 1   
   140  136  137 2   
   141  136  148 1   
   142  138  139 1   
   143  138  142 1   
   144  138  143 1   
   145  139  140 1   
   146  139  144 1   
   147  139  145 1   
   148  140  146 1   
   149  140  147 1   
   150  148  149 1   
   151  148  157 1   
   152  149  150 1   
   153  149  152 1   
   154  149  158 1   
   155  150  151 2   
   156  150  163 1   
   157  152  153 1   
   158  152  159 1   
   159  152  160 1   
   160  153  154 1   
   161  153  161 1   
   162  153  162 1   
   163  154  155 1   
   164  154  156 1   
   165  163  164 1   
   166  163  168 1   
   167  164  165 1   
   168  164  166 1   
   169  164  167 1   
   170  170  171 1   
   171  170  172 1   
   172  173  174 1   
   173  173  175 1   
@<TRIPOS>SUBSTRUCTURE
     1 MOL         1 TEMP              0 ****  ****    0 ROOT
