@<TRIPOS>MOLECULE
MOL
  186   183     1     0     0
SMALL
resp


@<TRIPOS>ATOM
      1 C1          0.7670   -1.5840    6.5330 c3        1 MOL     -0.227625
      2 C2          1.0520   -1.4120    5.0200 c         1 MOL      0.808962
      3 O1          0.1340   -1.5480    4.1970 o         1 MOL     -0.601611
      4 H1          1.1760   -0.7330    7.0780 hc        1 MOL      0.051520
      5 H2         -0.3090   -1.6370    6.6970 hc        1 MOL      0.051520
      6 H3          1.2360   -2.5020    6.8900 hc        1 MOL      0.051520
      7 N1          2.2910   -1.2520    4.5460 n         1 MOL     -0.740139
      8 C3          2.6800   -1.4530    3.1200 c3        1 MOL      0.092855
      9 C4          3.0460   -2.8830    2.6980 c         1 MOL      0.598808
     10 O2          3.8450   -3.6260    3.2630 o         1 MOL     -0.590731
     11 C5          3.7850   -0.4760    2.8450 c3        1 MOL     -0.366748
     12 C6          4.4550   -0.6050    1.5040 c         1 MOL      0.779506
     13 O3          5.6660   -0.8760    1.4210 o         1 MOL     -0.682850
     14 O4          3.7150   -0.6070    0.5060 o         1 MOL     -0.682850
     15 H4          3.1250   -1.2290    5.1140 hn        1 MOL      0.362697
     16 H5          1.8480   -1.2630    2.4310 h1        1 MOL      0.094127
     17 H6          4.4970   -0.5160    3.6600 hc        1 MOL      0.081707
     18 H7          3.2600    0.4770    2.9180 hc        1 MOL      0.081707
     19 N2          2.3430   -3.3640    1.6760 n         1 MOL     -0.247510
     20 C7          2.3270   -4.7740    1.3240 c3        1 MOL     -0.127930
     21 C8          3.2530   -5.0540    0.1820 c         1 MOL      0.507981
     22 O5          3.8990   -6.1030    0.1400 o         1 MOL     -0.576131
     23 C9          0.8060   -5.1470    1.0600 c3        1 MOL      0.307090
     24 C10        -0.0780   -4.9260    2.2930 c3        1 MOL      0.123982
     25 C11         0.7420   -6.5850    0.5190 c3        1 MOL     -0.253242
     26 C12        -1.4580   -5.4390    2.2780 c3        1 MOL     -0.197427
     27 H8          1.5950   -2.8170    1.2770 hn        1 MOL      0.114280
     28 H9          2.6230   -5.4170    2.1460 h1        1 MOL      0.088552
     29 H10         0.3200   -4.5420    0.2950 hc        1 MOL     -0.059362
     30 H11        -0.0850   -3.8360    2.3610 hc        1 MOL     -0.040258
     31 H12         0.4520   -5.3100    3.1680 hc        1 MOL     -0.040258
     32 H13        -0.3020   -6.8160    0.3160 hc        1 MOL      0.042620
     33 H14         1.3070   -6.7180   -0.4070 hc        1 MOL      0.042620
     34 H15         1.2010   -7.2300    1.2700 hc        1 MOL      0.042620
     35 H16        -1.9300   -5.1390    3.2140 hc        1 MOL      0.039485
     36 H17        -2.0360   -4.8910    1.5390 hc        1 MOL      0.039485
     37 H18        -1.5270   -6.5280    2.3140 hc        1 MOL      0.039485
     38 N3          3.3780   -4.2100   -0.8980 n         1 MOL     -0.333992
     39 C13         4.2680   -4.4040   -1.9790 c3        1 MOL      0.049895
     40 C14         5.7770   -3.8300   -1.7670 c         1 MOL      0.426435
     41 O6          6.6980   -4.1270   -2.5300 o         1 MOL     -0.531906
     42 C15         3.5960   -4.0380   -3.3370 c3        1 MOL     -0.268720
     43 C16         2.8320   -2.7270   -3.2770 c         1 MOL      0.929955
     44 O7          2.9550   -1.9780   -2.3300 o         1 MOL     -0.774936
     45 O8          1.9770   -2.4800   -4.1480 o         1 MOL     -0.774936
     46 H19         2.9070   -3.3070   -0.9170 hn        1 MOL      0.231160
     47 H20         4.4740   -5.4670   -2.0400 h1        1 MOL      0.071530
     48 H21         2.9890   -4.8450   -3.7250 hc        1 MOL      0.059478
     49 H22         4.4390   -3.8910   -4.0160 hc        1 MOL      0.059478
     50 N4          6.0240   -3.0260   -0.7100 n         1 MOL     -0.197716
     51 C17         7.3960   -2.6520   -0.3710 c3        1 MOL     -0.054557
     52 C18         7.8870   -1.3130   -0.9790 c         1 MOL      0.414185
     53 O9          8.8900   -1.2880   -1.6690 o         1 MOL     -0.567232
     54 H23         5.2870   -2.6290   -0.1510 hn        1 MOL      0.203737
     55 H24         8.0850   -3.4550   -0.6180 h1        1 MOL      0.059885
     56 H25         7.4610   -2.5970    0.7110 h1        1 MOL      0.059885
     57 N5          7.0850   -0.2460   -0.9300 n         1 MOL     -0.056817
     58 C19         7.4150    1.1060   -1.3940 c3        1 MOL      0.002062
     59 C20         7.2280    2.2850   -0.4330 c         1 MOL      0.253113
     60 O10         7.4180    3.4410   -0.7820 o         1 MOL     -0.479847
     61 C21         6.6300    1.5460   -2.6840 c3        1 MOL     -0.040388
     62 C22         5.1210    1.3190   -2.5040 c         1 MOL      0.756787
     63 O11         4.4800    1.7070   -1.4810 o         1 MOL     -0.756425
     64 O12         4.5080    0.6140   -3.2920 o         1 MOL     -0.756425
     65 H26         6.1270   -0.3830   -0.6480 hn        1 MOL      0.097237
     66 H27         8.4700    1.2070   -1.6580 h1        1 MOL      0.068506
     67 H28         6.9360    0.9370   -3.5370 hc        1 MOL      0.011156
     68 H29         6.8340    2.5740   -2.9800 hc        1 MOL      0.011156
     69 N6          6.9730    2.0320    0.8780 n         1 MOL      0.006604
     70 C23         6.9340    3.1420    1.9020 c3        1 MOL     -0.179965
     71 C24         5.6980    4.0380    1.7700 c         1 MOL      0.629913
     72 O13         5.7370    5.2130    2.1840 o         1 MOL     -0.600036
     73 H30         7.1010    1.0360    1.0340 hn        1 MOL      0.095404
     74 H31         7.7990    3.7610    1.6810 h1        1 MOL      0.064754
     75 H32         6.9740    2.5990    2.8510 h1        1 MOL      0.064754
     76 N7          4.6530    3.5640    1.0730 n         1 MOL     -0.352549
     77 C25         3.3050    4.2020    1.0290 c3        1 MOL     -0.079033
     78 C26         2.1520    3.1690    1.0360 c         1 MOL      0.732813
     79 O14         2.2880    2.0040    0.5360 o         1 MOL     -0.637715
     80 C27         3.1180    4.9880   -0.2550 c3        1 MOL     -0.054565
     81 C28         3.7160    6.3400   -0.2870 c3        1 MOL     -0.189680
     82 C29         3.5500    7.0080   -1.6310 c         1 MOL      0.617736
     83 N8          3.6650    8.3060   -1.5930 n         1 MOL     -0.752764
     84 O15         3.2970    6.4010   -2.6910 o         1 MOL     -0.545351
     85 H33         4.6690    2.6190    0.7300 hn        1 MOL      0.204862
     86 H34         3.2270    4.8830    1.8730 h1        1 MOL      0.051303
     87 H35         2.0490    5.0650   -0.4490 hc        1 MOL      0.083871
     88 H36         3.5460    4.3780   -1.0470 hc        1 MOL      0.083871
     89 H37         4.7970    6.3660   -0.1390 hc        1 MOL      0.075371
     90 H38         3.2660    6.9890    0.4610 hc        1 MOL      0.075371
     91 H39         3.6110    8.7600   -0.6930 hn        1 MOL      0.337883
     92 H40         3.4850    8.7930   -2.4580 hn        1 MOL      0.337883
     93 N9          0.9530    3.5420    1.5320 n         1 MOL     -0.611195
     94 C30        -0.1790    2.6350    1.8290 c3        1 MOL      0.073099
     95 C31        -1.3370    3.1840    1.0040 c         1 MOL      0.494868
     96 O16        -1.8550    4.2320    1.4060 o         1 MOL     -0.577394
     97 C32        -0.4020    2.5910    3.3550 c3        1 MOL      0.442720
     98 C33        -1.5620    1.6890    3.7220 c3        1 MOL     -0.278097
     99 C34         0.7650    2.2970    4.3630 c3        1 MOL     -0.278097
    100 H41         0.7520    4.5080    1.7290 hn        1 MOL      0.295824
    101 H42         0.1200    1.6870    1.3850 h1        1 MOL      0.062705
    102 H43        -0.7220    3.5860    3.6590 hc        1 MOL     -0.098404
    103 H44        -1.3030    0.6270    3.7550 hc        1 MOL      0.043348
    104 H45        -1.9220    2.0940    4.6730 hc        1 MOL      0.043348
    105 H46        -2.4350    1.8680    3.0930 hc        1 MOL      0.043348
    106 H47         0.3730    2.2740    5.3780 hc        1 MOL      0.043348
    107 H48         1.0370    1.2750    4.0920 hc        1 MOL      0.043348
    108 H49         1.5830    2.9710    4.1340 hc        1 MOL      0.043348
    109 N10        -1.6200    2.5010   -0.0880 n         1 MOL     -0.327011
    110 C35        -2.7830    2.7870   -0.7930 c3        1 MOL      0.104774
    111 C36        -4.0500    2.1210   -0.2600 c         1 MOL      0.385753
    112 O17        -4.0750    1.2660    0.6390 o         1 MOL     -0.315959
    113 C37        -2.5110    2.4940   -2.2910 c3        1 MOL     -0.454035
    114 C38        -3.0380    1.1310   -2.7080 c         1 MOL      0.474932
    115 N11        -2.5120    0.0160   -2.1770 n         1 MOL     -0.528750
    116 O18        -3.8980    1.1200   -3.5800 o         1 MOL     -0.519341
    117 H50        -1.0720    1.6870   -0.3120 hn        1 MOL      0.249333
    118 H51        -3.0140    3.8370   -0.6310 h1        1 MOL      0.058701
    119 H52        -1.4430    2.4540   -2.5210 hc        1 MOL      0.170704
    120 H53        -2.9540    3.2590   -2.9290 hc        1 MOL      0.170704
    121 H54        -1.6320    0.0880   -1.7040 hn        1 MOL      0.336196
    122 H55        -2.7540   -0.8010   -2.7200 hn        1 MOL      0.336196
    123 N12        -5.2630    2.4760   -0.7160 n         1 MOL     -0.512617
    124 C39        -6.5700    2.0110   -0.1890 c3        1 MOL      0.218727
    125 C40        -6.7030    0.4880   -0.1300 c         1 MOL      0.788754
    126 O19        -7.1860   -0.0330    0.8410 o         1 MOL     -0.574086
    127 C41        -7.6440    2.5650   -1.0490 c3        1 MOL     -0.121481
    128 C42        -9.0060    2.2250   -0.4680 ca        1 MOL     -0.074425
    129 C43        -9.4880    2.9810    0.6700 ca        1 MOL     -0.119113
    130 C44        -9.7760    1.1230   -0.8990 ca        1 MOL     -0.119113
    131 C45       -10.5620    2.5370    1.4060 ca        1 MOL     -0.281712
    132 C46       -10.9860    0.8290   -0.3010 ca        1 MOL     -0.281712
    133 C47       -11.4110    1.5240    0.9320 ca        1 MOL      0.379743
    134 O20       -12.5640    1.2360    1.5400 oh        1 MOL     -0.534734
    135 H56        -5.2760    3.0330   -1.5600 hn        1 MOL      0.280771
    136 H57        -6.6560    2.3430    0.8460 h1        1 MOL      0.007724
    137 H58        -7.5270    2.2490   -2.0870 hc        1 MOL      0.052316
    138 H59        -7.4210    3.6310   -1.0620 hc        1 MOL      0.052316
    139 H60        -8.9420    3.8530    1.0030 ha        1 MOL      0.130316
    140 H61        -9.4270    0.4870   -1.7030 ha        1 MOL      0.130316
    141 H62       -10.8080    2.9990    2.3560 ha        1 MOL      0.142247
    142 H63       -11.5660    0.0160   -0.7060 ha        1 MOL      0.142247
    143 H64       -13.0430    0.5050    1.1310 ho        1 MOL      0.392151
    144 N13        -6.1920   -0.1760   -1.2280 n         1 MOL     -0.515179
    145 C48        -6.1150   -1.6560   -1.4130 c3        1 MOL     -0.145985
    146 C49        -5.3180   -2.4370   -0.4080 c         1 MOL      0.377962
    147 O21        -5.6290   -3.5910   -0.1200 o         1 MOL     -0.520387
    148 C50        -5.6140   -2.0840   -2.8040 c3        1 MOL      0.169056
    149 C51        -6.3990   -1.4860   -3.9500 c3        1 MOL     -0.339372
    150 C52        -6.4510   -2.4510   -5.1410 c         1 MOL      0.794966
    151 O22        -7.0070   -3.5160   -5.0300 o         1 MOL     -0.759275
    152 O23        -6.0000   -2.0830   -6.2230 o         1 MOL     -0.759275
    153 H65        -5.8730    0.4160   -1.9890 hn        1 MOL      0.266859
    154 H66        -7.1290   -2.0670   -1.3770 h1        1 MOL      0.129225
    155 H67        -5.7050   -3.1780   -2.8420 hc        1 MOL      0.000974
    156 H68        -4.5450   -1.8750   -2.8830 hc        1 MOL      0.000974
    157 H69        -5.9930   -0.5190   -4.2630 hc        1 MOL      0.052787
    158 H70        -7.4350   -1.2640   -3.6750 hc        1 MOL      0.052787
    159 N14        -4.3830   -1.7280    0.2500 n         1 MOL      0.085014
    160 C53        -3.6730   -2.1070    1.4570 c3        1 MOL     -0.158081
    161 C54        -4.4710   -1.8250    2.7580 c         1 MOL      0.433902
    162 O24        -4.4760   -2.6000    3.7480 o         1 MOL     -0.533224
    163 C55        -2.2680   -1.3980    1.3710 c3        1 MOL      0.182347
    164 C56        -1.4030   -2.0200    0.2840 c3        1 MOL      0.045706
    165 C57        -0.1750   -1.1910   -0.0020 c         1 MOL      0.664944
    166 O25         0.9570   -1.6990   -0.1750 o         1 MOL     -0.655032
    167 O26        -0.3610    0.0050   -0.2300 o         1 MOL     -0.655032
    168 H71        -4.1120   -0.8440   -0.1640 hn        1 MOL     -0.114965
    169 H72        -3.5590   -3.1810    1.3070 h1        1 MOL      0.093534
    170 H73        -1.7570   -1.5160    2.3230 hc        1 MOL     -0.016173
    171 H74        -2.3700   -0.3410    1.1140 hc        1 MOL     -0.016173
    172 H75        -2.0140   -2.0940   -0.6090 hc        1 MOL     -0.032877
    173 H76        -1.3090   -3.0450    0.6220 hc        1 MOL     -0.032877
    174 N15        -5.0570   -0.5630    2.9030 n         1 MOL     -0.164086
    175 C58        -5.8610   -0.1420    4.1000 c3        1 MOL     -0.218895
    176 H77        -5.2990    0.5970    4.6720 h1        1 MOL      0.085015
    177 H78        -6.8030    0.2950    3.7690 h1        1 MOL      0.085015
    178 H79        -6.0620   -1.0100    4.7270 h1        1 MOL      0.085015
    179 H80        -4.8420    0.1660    2.2370 hn        1 MOL      0.160305
    180 Ca1         2.3180    0.2460   -1.4060 Ca        1 MOL      1.730545
    181 O27         0.5380   -0.2500   -3.2390 oh        1 MOL     -0.904357
    182 H81         0.9520   -0.9950   -3.6670 ho        1 MOL      0.417697
    183 H82         0.1630    0.2680   -3.9460 ho        1 MOL      0.417697
    184 O28         1.6180    2.6460   -2.8740 oh        1 MOL     -0.904357
    185 H83         2.4270    2.9340   -3.2980 ho        1 MOL      0.417697
    186 H84         0.9820    2.5870   -3.5870 ho        1 MOL      0.417697
@<TRIPOS>BOND
     1    1    2 1   
     2    1    4 1   
     3    1    5 1   
     4    1    6 1   
     5    2    3 2   
     6    2    7 1   
     7    7    8 1   
     8    7   15 1   
     9    8    9 1   
    10    8   11 1   
    11    8   16 1   
    12    9   10 2   
    13    9   19 1   
    14   11   12 1   
    15   11   17 1   
    16   11   18 1   
    17   12   13 1   
    18   12   14 1   
    19   19   20 1   
    20   19   27 1   
    21   20   21 1   
    22   20   23 1   
    23   20   28 1   
    24   21   22 2   
    25   21   38 1   
    26   23   24 1   
    27   23   25 1   
    28   23   29 1   
    29   24   26 1   
    30   24   30 1   
    31   24   31 1   
    32   25   32 1   
    33   25   33 1   
    34   25   34 1   
    35   26   35 1   
    36   26   36 1   
    37   26   37 1   
    38   38   39 1   
    39   38   46 1   
    40   39   40 1   
    41   39   42 1   
    42   39   47 1   
    43   40   41 2   
    44   40   50 1   
    45   42   43 1   
    46   42   48 1   
    47   42   49 1   
    48   43   44 1   
    49   43   45 1   
    50   50   51 1   
    51   50   54 1   
    52   51   52 1   
    53   51   55 1   
    54   51   56 1   
    55   52   53 2   
    56   52   57 1   
    57   57   58 1   
    58   57   65 1   
    59   58   59 1   
    60   58   61 1   
    61   58   66 1   
    62   59   60 2   
    63   59   69 1   
    64   61   62 1   
    65   61   67 1   
    66   61   68 1   
    67   62   63 1   
    68   62   64 1   
    69   69   70 1   
    70   69   73 1   
    71   70   71 1   
    72   70   74 1   
    73   70   75 1   
    74   71   72 2   
    75   71   76 1   
    76   76   77 1   
    77   76   85 1   
    78   77   78 1   
    79   77   80 1   
    80   77   86 1   
    81   78   79 2   
    82   78   93 1   
    83   80   81 1   
    84   80   87 1   
    85   80   88 1   
    86   81   82 1   
    87   81   89 1   
    88   81   90 1   
    89   82   83 1   
    90   82   84 2   
    91   83   91 1   
    92   83   92 1   
    93   93   94 1   
    94   93  100 1   
    95   94   95 1   
    96   94   97 1   
    97   94  101 1   
    98   95   96 2   
    99   95  109 1   
   100   97   98 1   
   101   97   99 1   
   102   97  102 1   
   103   98  103 1   
   104   98  104 1   
   105   98  105 1   
   106   99  106 1   
   107   99  107 1   
   108   99  108 1   
   109  109  110 1   
   110  109  117 1   
   111  110  111 1   
   112  110  113 1   
   113  110  118 1   
   114  111  112 2   
   115  111  123 1   
   116  113  114 1   
   117  113  119 1   
   118  113  120 1   
   119  114  115 1   
   120  114  116 2   
   121  115  121 1   
   122  115  122 1   
   123  123  124 1   
   124  123  135 1   
   125  124  125 1   
   126  124  127 1   
   127  124  136 1   
   128  125  126 2   
   129  125  144 1   
   130  127  128 1   
   131  127  137 1   
   132  127  138 1   
   133  128  129 ar  
   134  128  130 ar  
   135  129  131 ar  
   136  129  139 1   
   137  130  132 ar  
   138  130  140 1   
   139  131  133 ar  
   140  131  141 1   
   141  132  133 ar  
   142  132  142 1   
   143  133  134 1   
   144  134  143 1   
   145  144  145 1   
   146  144  153 1   
   147  145  146 1   
   148  145  148 1   
   149  145  154 1   
   150  146  147 2   
   151  146  159 1   
   152  148  149 1   
   153  148  155 1   
   154  148  156 1   
   155  149  150 1   
   156  149  157 1   
   157  149  158 1   
   158  150  151 1   
   159  150  152 1   
   160  159  160 1   
   161  159  168 1   
   162  160  161 1   
   163  160  163 1   
   164  160  169 1   
   165  161  162 2   
   166  161  174 1   
   167  163  164 1   
   168  163  170 1   
   169  163  171 1   
   170  164  165 1   
   171  164  172 1   
   172  164  173 1   
   173  165  166 1   
   174  165  167 1   
   175  174  175 1   
   176  174  179 1   
   177  175  176 1   
   178  175  177 1   
   179  175  178 1   
   180  181  182 1   
   181  181  183 1   
   182  184  185 1   
   183  184  186 1   
@<TRIPOS>SUBSTRUCTURE
     1 MOL         1 TEMP              0 ****  ****    0 ROOT
