@<TRIPOS>MOLECULE
MOL
  169   169     1     0     0
SMALL
resp


@<TRIPOS>ATOM
      1 C1         -0.1670   -3.1580    5.6040 c3        1 MOL     -0.339292
      2 C2          0.4420   -3.0060    4.2260 c         1 MOL      0.649619
      3 O1         -0.1830   -3.4980    3.2780 o         1 MOL     -0.545045
      4 H1         -1.0440   -3.8020    5.5440 hc        1 MOL      0.081957
      5 H2          0.5640   -3.6030    6.2790 hc        1 MOL      0.081957
      6 H3         -0.4610   -2.1790    5.9800 hc        1 MOL      0.081957
      7 N1          1.6030   -2.4130    4.0850 n         1 MOL     -0.505089
      8 C3          2.1100   -1.9610    2.8210 c3        1 MOL      0.234398
      9 C4          2.7140   -3.1830    2.0270 c         1 MOL      0.360657
     10 O2          3.8260   -3.5200    2.1420 o         1 MOL     -0.472009
     11 C5          3.1270   -0.8270    3.0620 c3        1 MOL     -0.163257
     12 C6          3.9390   -0.3530    1.8340 c         1 MOL      0.610685
     13 O3          3.1740   -0.2080    0.8440 o         1 MOL     -0.619966
     14 O4          5.1820   -0.1620    1.9310 o         1 MOL     -0.619966
     15 H4          2.2320   -2.2220    4.8500 hn        1 MOL      0.283122
     16 H5          1.3230   -1.6260    2.1490 h1        1 MOL      0.050263
     17 H6          3.8790   -1.0960    3.8030 hc        1 MOL      0.019553
     18 H7          2.5190   -0.0630    3.5400 hc        1 MOL      0.019553
     19 N2          1.7390   -3.7990    1.2970 n         1 MOL     -0.060692
     20 C7          1.9250   -5.0550    0.6140 c3        1 MOL      0.108558
     21 C8          3.0200   -5.1840   -0.4620 c         1 MOL      0.433685
     22 O5          3.5510   -6.2950   -0.4950 o         1 MOL     -0.569375
     23 C9          0.5170   -5.4340    0.1620 c3        1 MOL     -0.367177
     24 H8          0.8890   -3.2620    1.1870 hn        1 MOL     -0.019378
     25 H9          2.2430   -5.6540    1.4610 h1        1 MOL      0.030867
     26 H10         0.2660   -4.8280   -0.7130 hc        1 MOL      0.102770
     27 H11         0.4260   -6.4300   -0.2780 hc        1 MOL      0.102770
     28 H12        -0.1710   -5.3670    0.9970 hc        1 MOL      0.102770
     29 N3          3.3040   -4.1270   -1.2180 n         1 MOL     -0.204152
     30 C10         4.3820   -4.1200   -2.2140 c3        1 MOL     -0.026006
     31 C11         5.6930   -3.6830   -1.4500 c         1 MOL      0.475497
     32 O6          6.7540   -3.7670   -2.0500 o         1 MOL     -0.549666
     33 C12         3.8370   -3.2520   -3.4710 c3        1 MOL     -0.210484
     34 C13         3.3510   -1.8720   -3.0420 c         1 MOL      0.838851
     35 O7          2.4850   -1.3010   -3.6780 o         1 MOL     -0.748307
     36 O8          3.7550   -1.3570   -1.9880 o         1 MOL     -0.748307
     37 H13         2.7350   -3.3030   -1.1340 hn        1 MOL      0.219514
     38 H14         4.5680   -5.1410   -2.5420 h1        1 MOL      0.086311
     39 H15         2.9980   -3.7610   -3.9520 hc        1 MOL      0.053914
     40 H16         4.6140   -3.0980   -4.2230 hc        1 MOL      0.053914
     41 N4          5.6530   -3.1160   -0.2130 n         1 MOL     -0.157645
     42 C14         6.8250   -2.5710    0.4470 c3        1 MOL     -0.146351
     43 C15         7.2910   -1.2250   -0.0910 c         1 MOL      0.524345
     44 O9          8.4780   -0.9200   -0.0660 o         1 MOL     -0.619511
     45 H17         4.7760   -2.8740    0.2300 hn        1 MOL      0.027712
     46 H18         7.6380   -3.3010    0.3390 h1        1 MOL      0.099758
     47 H19         6.6410   -2.4970    1.5240 h1        1 MOL      0.099758
     48 N5          6.4760   -0.3940   -0.6930 n         1 MOL     -0.151116
     49 C16         6.8150    0.8410   -1.4100 c3        1 MOL     -0.029243
     50 C17         6.8590    2.1090   -0.4990 c         1 MOL      0.322584
     51 O10         7.3750    3.1860   -0.9110 o         1 MOL     -0.550129
     52 C18         6.0070    1.0020   -2.7400 c3        1 MOL     -0.207176
     53 C19         4.8330    1.9870   -2.5850 c         1 MOL      0.660807
     54 N6          4.7900    2.9730   -3.4850 n         1 MOL     -0.765635
     55 O11         3.9390    1.7490   -1.8340 o         1 MOL     -0.641749
     56 H20         5.5540   -0.7760   -0.8090 hn        1 MOL      0.189838
     57 H21         7.8600    0.7620   -1.7300 h1        1 MOL      0.110859
     58 H22         5.6620    0.0100   -3.0330 hc        1 MOL      0.079256
     59 H23         6.6690    1.3140   -3.5380 hc        1 MOL      0.079256
     60 H24         5.5970    3.1530   -4.0620 hn        1 MOL      0.363149
     61 H25         3.8950    3.4250   -3.5850 hn        1 MOL      0.363149
     62 N7          6.2900    1.9800    0.7240 n         1 MOL     -0.003526
     63 C20         6.2460    3.0060    1.8050 c3        1 MOL     -0.362417
     64 C21         4.9970    3.9230    1.7310 c         1 MOL      0.698498
     65 O12         4.9050    4.9260    2.4130 o         1 MOL     -0.596571
     66 H26         5.8720    1.0710    0.8680 hn        1 MOL      0.132134
     67 H27         7.0860    3.6880    1.6310 h1        1 MOL      0.142325
     68 H28         6.3610    2.5200    2.7730 h1        1 MOL      0.142325
     69 N8          3.9970    3.5780    0.9130 n         1 MOL     -0.567103
     70 C22         2.8390    4.5320    0.6170 c3        1 MOL      0.026199
     71 C23         1.5950    3.6260    0.5230 c         1 MOL      0.684506
     72 O13         1.6340    2.6240   -0.1720 o         1 MOL     -0.690638
     73 C24         3.0480    5.3310   -0.6930 c3        1 MOL      0.384932
     74 C25         1.8060    6.1820   -1.1510 c3        1 MOL     -0.427676
     75 O14         4.2310    6.1430   -0.6500 oh        1 MOL     -0.590445
     76 H29         4.0800    2.7150    0.3930 hn        1 MOL      0.360656
     77 H30         2.6370    5.2420    1.4210 h1        1 MOL      0.078375
     78 H31         3.2440    4.5330   -1.4200 h1        1 MOL      0.019190
     79 H32         4.4060    6.5350   -1.5110 ho        1 MOL      0.370449
     80 H33         0.8380    5.7090   -1.0220 hc        1 MOL      0.101605
     81 H34         1.6990    7.1910   -0.7530 hc        1 MOL      0.101605
     82 H35         1.9500    6.3000   -2.2260 hc        1 MOL      0.101605
     83 N9          0.4280    3.9650    1.1060 n         1 MOL     -0.636745
     84 C26        -0.7920    3.2010    1.2730 c3        1 MOL     -0.068942
     85 C27        -1.6260    3.2750    0.0220 c         1 MOL      0.650878
     86 O15        -2.1950    4.3350   -0.3620 o         1 MOL     -0.617140
     87 C28        -1.6750    3.6270    2.4820 c3        1 MOL      0.238061
     88 C29        -0.8550    4.0110    3.7430 c3        1 MOL      0.168090
     89 C30        -2.5240    2.4280    2.8430 c3        1 MOL     -0.433541
     90 C31        -1.7270    4.9050    4.7540 c3        1 MOL     -0.223217
     91 H36         0.4800    4.8490    1.5910 hn        1 MOL      0.302109
     92 H37        -0.3930    2.1900    1.4420 h1        1 MOL      0.191320
     93 H38        -2.2830    4.4980    2.2720 hc        1 MOL     -0.019320
     94 H39         0.0050    4.6150    3.4490 hc        1 MOL     -0.033670
     95 H40        -0.4120    3.1460    4.2540 hc        1 MOL     -0.033670
     96 H41        -3.2300    2.1340    2.0680 hc        1 MOL      0.085717
     97 H42        -1.8650    1.5850    3.0720 hc        1 MOL      0.085717
     98 H43        -3.1500    2.6870    3.6970 hc        1 MOL      0.085717
     99 H44        -1.9010    5.8570    4.2550 hc        1 MOL      0.043034
    100 H45        -2.6220    4.3530    5.0330 hc        1 MOL      0.043034
    101 H46        -1.1770    5.1880    5.6620 hc        1 MOL      0.043034
    102 N10        -1.8330    2.0860   -0.5440 n         1 MOL     -0.278117
    103 C32        -2.8790    1.9160   -1.5780 c3        1 MOL      0.035578
    104 C33        -4.1570    1.2940   -1.0060 c         1 MOL      0.195136
    105 O16        -4.2090    0.7370    0.1360 o         1 MOL     -0.052064
    106 C34        -2.3200    1.0990   -2.7180 c3        1 MOL     -0.073266
    107 C35        -0.9470    1.4960   -3.2760 c         1 MOL      0.685051
    108 O17        -0.9040    2.1450   -4.3670 o         1 MOL     -0.692220
    109 O18         0.1080    1.0870   -2.7570 o         1 MOL     -0.692220
    110 H47        -1.5700    1.2880    0.0140 hn        1 MOL      0.146866
    111 H48        -3.1140    2.8990   -1.9910 h1        1 MOL      0.082810
    112 H49        -2.9900    1.0880   -3.5760 hc        1 MOL      0.009214
    113 H50        -2.2600    0.1120   -2.2620 hc        1 MOL      0.009214
    114 N11        -5.2400    1.3490   -1.7440 n         1 MOL     -0.475137
    115 C36        -6.4920    0.8960   -1.2960 c3        1 MOL      0.248189
    116 C37        -6.6650   -0.5740   -0.9650 c         1 MOL      0.321259
    117 O19        -7.2870   -0.9190    0.0570 o         1 MOL     -0.509855
    118 C38        -7.5740    1.3400   -2.3490 c3        1 MOL     -0.053266
    119 C39        -9.0020    1.3350   -1.8200 ca        1 MOL      0.055649
    120 C40        -9.9340    0.3520   -2.1970 ca        1 MOL     -0.212686
    121 C41        -9.3290    2.1890   -0.7350 ca        1 MOL     -0.212686
    122 C42       -11.0720    0.1780   -1.4420 ca        1 MOL     -0.003411
    123 C43       -10.6230    2.0750   -0.1520 ca        1 MOL     -0.003411
    124 C44       -11.4840    1.0710   -0.4610 ca        1 MOL     -0.206315
    125 H51        -5.1230    1.7990   -2.6480 hn        1 MOL      0.315147
    126 H52        -6.7090    1.4260   -0.3610 h1        1 MOL      0.085242
    127 H53        -7.4880    0.6430   -3.1860 hc        1 MOL      0.029864
    128 H54        -7.3740    2.2830   -2.8480 hc        1 MOL      0.029864
    129 H55        -9.7810   -0.3610   -2.9940 ha        1 MOL      0.121638
    130 H56        -8.6430    3.0070   -0.5420 ha        1 MOL      0.121638
    131 H57       -11.7520   -0.6340   -1.6640 ha        1 MOL      0.077596
    132 H58       -10.8840    2.8260    0.5950 ha        1 MOL      0.077596
    133 H59       -12.4230    0.9110    0.0450 ha        1 MOL      0.127525
    134 N12        -5.9870   -1.5400   -1.5440 n         1 MOL     -0.018469
    135 C45        -6.0930   -2.9560   -1.0580 c3        1 MOL      0.011651
    136 C46        -5.2710   -3.1360    0.2160 c         1 MOL      0.361205
    137 O20        -5.1600   -4.2430    0.7130 o         1 MOL     -0.542445
    138 C47        -5.5440   -3.8440   -2.1480 c3        1 MOL     -0.146097
    139 C48        -5.5100   -2.9600   -3.2950 c3        1 MOL      0.311679
    140 C49        -5.2820   -1.5030   -2.8440 c3        1 MOL     -0.296164
    141 H60        -7.1580   -3.2010   -0.9630 h1        1 MOL      0.097185
    142 H61        -4.5060   -4.1870   -2.0670 hc        1 MOL      0.056473
    143 H62        -6.1680   -4.7080   -2.3580 hc        1 MOL      0.056473
    144 H63        -4.8000   -3.2760   -4.0580 hc        1 MOL     -0.062933
    145 H64        -6.4670   -3.0580   -3.8130 hc        1 MOL     -0.062933
    146 H65        -4.2030   -1.3140   -2.7660 h1        1 MOL      0.108460
    147 H66        -5.6920   -0.8070   -3.5770 h1        1 MOL      0.108460
    148 N13        -4.7040   -2.0320    0.7990 n         1 MOL      0.119959
    149 C50        -3.9610   -2.0460    1.9920 c3        1 MOL     -0.067051
    150 C51        -4.6280   -1.1230    3.0430 c         1 MOL      0.381601
    151 O21        -4.6860   -1.3800    4.2650 o         1 MOL     -0.537165
    152 C52        -2.4900   -1.6460    1.7400 c3        1 MOL     -0.046965
    153 C53        -1.5750   -2.3620    0.6650 c3        1 MOL     -0.109704
    154 C54        -0.4950   -1.4390    0.0850 c         1 MOL      0.773341
    155 O22         0.3410   -1.9090   -0.7050 o         1 MOL     -0.808209
    156 O23        -0.3070   -0.2790    0.4830 o         1 MOL     -0.808209
    157 H67        -4.9050   -1.1370    0.3740 hn        1 MOL     -0.221837
    158 H68        -4.0290   -3.0150    2.4890 h1        1 MOL      0.095696
    159 H69        -1.9750   -1.7300    2.6930 hc        1 MOL      0.051806
    160 H70        -2.4130   -0.5890    1.5160 hc        1 MOL      0.051806
    161 H71        -2.1240   -2.7460   -0.2000 hc        1 MOL      0.072646
    162 H72        -1.2260   -3.2910    1.1250 hc        1 MOL      0.072646
    163 N14        -5.1930    0.0360    2.5760 n         1 MOL      0.009407
    164 C55        -6.0750    0.9270    3.3410 c3        1 MOL     -0.285993
    165 H73        -6.9080    0.3530    3.7470 h1        1 MOL      0.098683
    166 H74        -5.5130    1.3800    4.1590 h1        1 MOL      0.098683
    167 H75        -6.4590    1.7100    2.6860 h1        1 MOL      0.098683
    168 H76        -5.0620    0.2640    1.6060 hn        1 MOL     -0.009613
    169 Ca1         1.7910    0.2200   -1.1890 Ca        1 MOL      1.733439
@<TRIPOS>BOND
     1    1    2 1   
     2    1    4 1   
     3    1    5 1   
     4    1    6 1   
     5    2    3 2   
     6    2    7 1   
     7    7    8 1   
     8    7   15 1   
     9    8    9 1   
    10    8   11 1   
    11    8   16 1   
    12    9   10 2   
    13    9   19 1   
    14   11   12 1   
    15   11   17 1   
    16   11   18 1   
    17   12   13 1   
    18   12   14 1   
    19   19   20 1   
    20   19   24 1   
    21   20   21 1   
    22   20   23 1   
    23   20   25 1   
    24   21   22 2   
    25   21   29 1   
    26   23   26 1   
    27   23   27 1   
    28   23   28 1   
    29   29   30 1   
    30   29   37 1   
    31   30   31 1   
    32   30   33 1   
    33   30   38 1   
    34   31   32 2   
    35   31   41 1   
    36   33   34 1   
    37   33   39 1   
    38   33   40 1   
    39   34   35 1   
    40   34   36 1   
    41   41   42 1   
    42   41   45 1   
    43   42   43 1   
    44   42   46 1   
    45   42   47 1   
    46   43   44 2   
    47   43   48 1   
    48   48   49 1   
    49   48   56 1   
    50   49   50 1   
    51   49   52 1   
    52   49   57 1   
    53   50   51 2   
    54   50   62 1   
    55   52   53 1   
    56   52   58 1   
    57   52   59 1   
    58   53   54 1   
    59   53   55 2   
    60   54   60 1   
    61   54   61 1   
    62   62   63 1   
    63   62   66 1   
    64   63   64 1   
    65   63   67 1   
    66   63   68 1   
    67   64   65 2   
    68   64   69 1   
    69   69   70 1   
    70   69   76 1   
    71   70   71 1   
    72   70   73 1   
    73   70   77 1   
    74   71   72 2   
    75   71   83 1   
    76   73   74 1   
    77   73   75 1   
    78   73   78 1   
    79   74   80 1   
    80   74   81 1   
    81   74   82 1   
    82   75   79 1   
    83   83   84 1   
    84   83   91 1   
    85   84   85 1   
    86   84   87 1   
    87   84   92 1   
    88   85   86 2   
    89   85  102 1   
    90   87   88 1   
    91   87   89 1   
    92   87   93 1   
    93   88   90 1   
    94   88   94 1   
    95   88   95 1   
    96   89   96 1   
    97   89   97 1   
    98   89   98 1   
    99   90   99 1   
   100   90  100 1   
   101   90  101 1   
   102  102  103 1   
   103  102  110 1   
   104  103  104 1   
   105  103  106 1   
   106  103  111 1   
   107  104  105 2   
   108  104  114 1   
   109  106  107 1   
   110  106  112 1   
   111  106  113 1   
   112  107  108 1   
   113  107  109 1   
   114  114  115 1   
   115  114  125 1   
   116  115  116 1   
   117  115  118 1   
   118  115  126 1   
   119  116  117 2   
   120  116  134 1   
   121  118  119 1   
   122  118  127 1   
   123  118  128 1   
   124  119  120 ar  
   125  119  121 ar  
   126  120  122 ar  
   127  120  129 1   
   128  121  123 ar  
   129  121  130 1   
   130  122  124 ar  
   131  122  131 1   
   132  123  124 ar  
   133  123  132 1   
   134  124  133 1   
   135  134  135 1   
   136  134  140 1   
   137  135  136 1   
   138  135  138 1   
   139  135  141 1   
   140  136  137 2   
   141  136  148 1   
   142  138  139 1   
   143  138  142 1   
   144  138  143 1   
   145  139  140 1   
   146  139  144 1   
   147  139  145 1   
   148  140  146 1   
   149  140  147 1   
   150  148  149 1   
   151  148  157 1   
   152  149  150 1   
   153  149  152 1   
   154  149  158 1   
   155  150  151 2   
   156  150  163 1   
   157  152  153 1   
   158  152  159 1   
   159  152  160 1   
   160  153  154 1   
   161  153  161 1   
   162  153  162 1   
   163  154  155 1   
   164  154  156 1   
   165  163  164 1   
   166  163  168 1   
   167  164  165 1   
   168  164  166 1   
   169  164  167 1   
@<TRIPOS>SUBSTRUCTURE
     1 MOL         1 TEMP              0 ****  ****    0 ROOT
