@<TRIPOS>MOLECULE
MOL
  189   185     1     0     0
SMALL
resp


@<TRIPOS>ATOM
      1 C1         -0.6570    2.7510    5.7250 c3        1 MOL     -0.322757
      2 C2         -0.9090    2.2610    4.2910 c         1 MOL      0.717111
      3 O1         -0.1140    2.6180    3.4240 o         1 MOL     -0.646756
      4 H1         -0.0120    3.6290    5.7000 hc        1 MOL      0.079568
      5 H2         -1.6060    3.0110    6.1930 hc        1 MOL      0.079568
      6 H3         -0.1720    1.9620    6.2990 hc        1 MOL      0.079568
      7 N1         -2.0210    1.4970    4.1080 n         1 MOL     -0.514720
      8 C3         -2.5110    1.3920    2.7530 c3        1 MOL      0.109227
      9 C4         -2.8150    2.7940    2.1800 c         1 MOL      0.462083
     10 O2         -3.9100    3.2870    2.3190 o         1 MOL     -0.514356
     11 C5         -3.6720    0.3460    2.6170 c3        1 MOL     -0.287108
     12 C6         -4.4730    0.2250    1.2930 c         1 MOL      0.669069
     13 O3         -5.7020   -0.0560    1.4910 o         1 MOL     -0.655420
     14 O4         -3.9970    0.3910    0.1500 o         1 MOL     -0.655420
     15 H4         -2.7530    1.3890    4.7850 hn        1 MOL      0.321135
     16 H5         -1.6730    0.9380    2.2350 h1        1 MOL      0.004295
     17 H6         -4.3190    0.6310    3.4410 hc        1 MOL      0.081330
     18 H7         -3.3690   -0.6370    2.9530 hc        1 MOL      0.081330
     19 N2         -1.8200    3.4150    1.5160 n         1 MOL     -0.403704
     20 C7         -2.0220    4.8210    1.0200 c3        1 MOL     -0.004478
     21 C8         -3.1110    4.9800   -0.0580 c         1 MOL      0.409684
     22 O5         -3.4830    6.1680   -0.1840 o         1 MOL     -0.547206
     23 C9         -0.6660    5.2830    0.4610 c3        1 MOL     -0.119544
     24 C10         0.4990    5.3090    1.4960 c3        1 MOL      0.104942
     25 C11         1.7970    6.0900    0.9260 c3        1 MOL     -0.170905
     26 C12         2.8550    6.3790    1.9850 c3        1 MOL      0.145468
     27 N3          4.0340    6.9190    1.3270 n4        1 MOL     -0.309053
     28 H8         -1.0220    2.8140    1.3710 hn        1 MOL      0.506867
     29 H9         -2.1760    5.5660    1.8020 h1        1 MOL      0.080756
     30 H10        -0.7590    6.2900    0.0590 hc        1 MOL      0.053780
     31 H11        -0.3530    4.5940   -0.3230 hc        1 MOL      0.053780
     32 H12         0.7570    4.3030    1.7980 hc        1 MOL      0.016174
     33 H13         0.1630    5.7870    2.4100 hc        1 MOL      0.016174
     34 H14         1.5110    6.9940    0.3790 hc        1 MOL      0.039961
     35 H15         2.2300    5.3810    0.2170 hc        1 MOL      0.039961
     36 H16         3.0450    5.5070    2.6110 hx        1 MOL      0.060652
     37 H17         2.4450    7.0940    2.6970 hx        1 MOL      0.060652
     38 H18         3.7430    7.6530    0.6940 hn        1 MOL      0.306961
     39 H19         4.5730    7.5280    1.9260 hn        1 MOL      0.306961
     40 H20         4.6090    6.3090    0.7730 hn        1 MOL      0.306961
     41 N4         -3.4580    3.8820   -0.7480 n         1 MOL     -0.139279
     42 C13        -4.3410    4.1010   -1.9010 c3        1 MOL      0.043561
     43 C14        -5.6100    3.2790   -1.8000 c         1 MOL      0.455275
     44 O6         -6.4900    3.2650   -2.7110 o         1 MOL     -0.549418
     45 C15        -3.5420    3.9210   -3.2190 c3        1 MOL     -0.218682
     46 C16        -2.5250    2.7580   -3.3670 c         1 MOL      0.761384
     47 O7         -1.7920    2.7040   -4.4270 o         1 MOL     -0.715964
     48 O8         -2.4380    1.9520   -2.4210 o         1 MOL     -0.715964
     49 H21        -3.1560    2.9770   -0.4120 hn        1 MOL      0.057275
     50 H22        -4.7150    5.1240   -1.9120 h1        1 MOL      0.092506
     51 H23        -3.0590    4.8890   -3.3030 hc        1 MOL      0.055578
     52 H24        -4.2320    3.8150   -4.0670 hc        1 MOL      0.055578
     53 N5         -5.8320    2.6600   -0.6750 n         1 MOL     -0.297056
     54 C17        -7.1420    2.1070   -0.3680 c3        1 MOL     -0.220967
     55 C18        -7.5040    0.7750   -1.0930 c         1 MOL      0.547215
     56 O9         -8.6420    0.3910   -1.2030 o         1 MOL     -0.583778
     57 H25        -5.0610    2.4800   -0.0470 hn        1 MOL      0.257645
     58 H26        -7.8080    2.9550   -0.5240 h1        1 MOL      0.129395
     59 H27        -7.3020    1.8340    0.6750 h1        1 MOL      0.129395
     60 N6         -6.4920    0.0270   -1.4710 n         1 MOL     -0.194747
     61 C19        -6.7100   -1.3050   -2.1120 c3        1 MOL     -0.061456
     62 C20        -6.8900   -2.4580   -1.1500 c         1 MOL      0.447321
     63 O10        -7.0780   -3.5770   -1.6130 o         1 MOL     -0.537210
     64 C21        -5.6840   -1.5980   -3.1270 c3        1 MOL     -0.231573
     65 C22        -4.2850   -1.4340   -2.6390 c         1 MOL      0.624288
     66 O11        -3.4550   -0.7300   -3.2970 o         1 MOL     -0.640646
     67 O12        -3.9960   -1.9710   -1.5480 o         1 MOL     -0.640646
     68 H28        -5.5590    0.2520   -1.1620 hn        1 MOL      0.201063
     69 H29        -7.6200   -1.3100   -2.7160 h1        1 MOL      0.131688
     70 H30        -5.6690   -0.8320   -3.9070 hc        1 MOL      0.075955
     71 H31        -5.8410   -2.5880   -3.5490 hc        1 MOL      0.075955
     72 N7         -6.7440   -2.2320    0.1160 n         1 MOL     -0.267609
     73 C23        -6.7130   -3.3360    1.0610 c3        1 MOL     -0.010757
     74 C24        -5.4340   -4.2110    1.1470 c         1 MOL      0.432495
     75 O13        -5.5340   -5.3990    1.5960 o         1 MOL     -0.567341
     76 H32        -6.6300   -1.3320    0.5460 hn        1 MOL      0.285999
     77 H33        -7.5590   -3.9940    0.9050 h1        1 MOL      0.053253
     78 H34        -6.8980   -2.9450    2.0580 h1        1 MOL      0.053253
     79 N8         -4.3150   -3.6640    0.8500 n         1 MOL     -0.196040
     80 C25        -2.9960   -4.4330    0.8480 c3        1 MOL     -0.203897
     81 C26        -1.8250   -3.4470    1.0090 c         1 MOL      0.527553
     82 O14        -1.8350   -2.2880    0.5880 o         1 MOL     -0.612082
     83 C27        -2.7820   -5.1880   -0.5040 c3        1 MOL      0.620893
     84 C28        -3.4820   -6.5430   -0.5460 c3        1 MOL     -0.461076
     85 O15        -3.0690   -4.3740   -1.5830 oh        1 MOL     -0.700894
     86 H35        -4.3160   -2.7230    0.4750 hn        1 MOL      0.198732
     87 H36        -2.9820   -5.0750    1.7280 h1        1 MOL      0.114622
     88 H37        -1.7110   -5.4200   -0.5180 h1        1 MOL     -0.070747
     89 H38        -3.5330   -3.5580   -1.3740 ho        1 MOL      0.461152
     90 H39        -3.2400   -7.0340    0.3990 hc        1 MOL      0.110420
     91 H40        -4.5720   -6.4350   -0.5040 hc        1 MOL      0.110420
     92 H41        -3.1670   -7.1340   -1.4030 hc        1 MOL      0.110420
     93 N9         -0.6960   -3.9460    1.5050 n         1 MOL     -0.492683
     94 C29         0.5520   -3.1710    1.6990 c3        1 MOL      0.173006
     95 C30         1.7450   -3.5400    0.8280 c         1 MOL      0.409864
     96 O16         2.1310   -4.7160    0.6990 o         1 MOL     -0.559771
     97 C31         0.9760   -3.2250    3.2380 c3        1 MOL     -0.009812
     98 C32        -0.1290   -2.5040    4.0790 c3        1 MOL      0.072913
     99 C33         2.4560   -2.7030    3.4880 c3        1 MOL     -0.149224
    100 C34         0.2990   -2.1020    5.5340 c3        1 MOL     -0.243874
    101 H42        -0.7500   -4.9030    1.8330 hn        1 MOL      0.271631
    102 H43         0.2550   -2.1400    1.5240 h1        1 MOL      0.150905
    103 H44         1.0180   -4.3030    3.4090 hc        1 MOL      0.017805
    104 H45        -0.9730   -3.1770    4.2330 hc        1 MOL     -0.001384
    105 H46        -0.4780   -1.6150    3.5640 hc        1 MOL     -0.001384
    106 H47         3.2030   -3.2710    2.9310 hc        1 MOL      0.030133
    107 H48         2.5360   -1.6700    3.1490 hc        1 MOL      0.030133
    108 H49         2.6970   -2.8580    4.5330 hc        1 MOL      0.030133
    109 H50         1.1150   -1.3830    5.5460 hc        1 MOL      0.064474
    110 H51        -0.5250   -1.5250    5.9600 hc        1 MOL      0.064474
    111 H52         0.6270   -2.9950    6.0600 hc        1 MOL      0.064474
    112 N10         2.3360   -2.6050    0.1260 n         1 MOL     -0.075392
    113 C35         3.4750   -2.7950   -0.7590 c3        1 MOL     -0.010640
    114 C36         4.8880   -2.7320   -0.1420 c         1 MOL      0.482569
    115 O17         5.0160   -2.4520    1.0430 o         1 MOL     -0.403738
    116 C37         3.3430   -1.7930   -1.9010 c3        1 MOL     -0.167406
    117 C38         2.0700   -1.9380   -2.7070 c3        1 MOL     -0.214752
    118 O18         3.5150   -0.4610   -1.4900 oh        1 MOL     -0.246487
    119 H53         1.8570   -1.7220    0.0800 hn        1 MOL      0.133841
    120 H54         3.4360   -3.7910   -1.1850 h1        1 MOL      0.093504
    121 H55         4.1190   -1.9190   -2.6450 h1        1 MOL      0.047200
    122 H56         3.2230    0.1810   -2.1430 ho        1 MOL      0.339801
    123 H57         1.1970   -1.7680   -2.0870 hc        1 MOL      0.090922
    124 H58         2.0620   -1.2790   -3.5740 hc        1 MOL      0.090922
    125 H59         1.9430   -2.8980   -3.2080 hc        1 MOL      0.090922
    126 N11         5.9350   -2.9520   -0.9660 n         1 MOL     -0.439755
    127 C39         7.3590   -2.6160   -0.5900 c3        1 MOL     -0.034726
    128 C40         7.4840   -1.1820   -0.1290 c         1 MOL      0.189812
    129 O19         8.2860   -0.7960    0.7270 o         1 MOL     -0.449023
    130 C41         8.3720   -2.7980   -1.6560 c3        1 MOL      0.259929
    131 C42         8.4840   -4.2920   -2.1370 c3        1 MOL     -0.570177
    132 O20         7.9130   -2.1790   -2.8050 oh        1 MOL     -0.611412
    133 H60         5.7530   -3.2770   -1.9080 hn        1 MOL      0.295434
    134 H61         7.6370   -3.2540    0.2530 h1        1 MOL      0.164034
    135 H62         9.3890   -2.4990   -1.4040 h1        1 MOL      0.077195
    136 H63         8.5210   -2.4380   -3.5020 ho        1 MOL      0.392285
    137 H64         8.7770   -4.8040   -1.2140 hc        1 MOL      0.166115
    138 H65         7.5180   -4.5780   -2.5640 hc        1 MOL      0.166115
    139 H66         9.0930   -4.4620   -3.0220 hc        1 MOL      0.166115
    140 N12         6.6430   -0.2610   -0.7160 n         1 MOL      0.032966
    141 C43         6.6050    1.2050   -0.5030 c3        1 MOL     -0.025599
    142 C44         5.9370    1.4700    0.8360 c         1 MOL      0.394424
    143 O21         6.4720    2.1660    1.6950 o         1 MOL     -0.500165
    144 C45         6.0330    2.0300   -1.6230 c3        1 MOL     -0.077990
    145 C46         6.9550    1.8820   -2.8270 c3        1 MOL      0.025227
    146 C47         6.3080    2.3120   -4.1380 c3        1 MOL     -0.019182
    147 C48         7.3610    2.5840   -5.2200 c3        1 MOL     -0.027981
    148 N13         7.7840    1.3260   -5.8950 n4        1 MOL     -0.373180
    149 H67         6.1090   -0.7140   -1.4440 hn        1 MOL      0.175146
    150 H68         7.6160    1.5560   -0.3270 h1        1 MOL      0.066281
    151 H69         5.8700    3.0700   -1.3250 hc        1 MOL      0.051289
    152 H70         5.0540    1.6040   -1.8560 hc        1 MOL      0.051289
    153 H71         7.2270    0.8300   -2.9050 hc        1 MOL     -0.013578
    154 H72         7.8320    2.4850   -2.6210 hc        1 MOL     -0.013578
    155 H73         5.7760    3.2620   -4.0800 hc        1 MOL      0.031232
    156 H74         5.5620    1.5730   -4.4040 hc        1 MOL      0.031232
    157 H75         8.2220    3.1380   -4.8630 hx        1 MOL      0.120547
    158 H76         7.0580    3.3520   -5.9400 hx        1 MOL      0.120547
    159 H77         8.2340    0.7250   -5.2280 hn        1 MOL      0.299411
    160 H78         6.9820    0.8620   -6.2760 hn        1 MOL      0.299411
    161 H79         8.4140    1.4320   -6.6850 hn        1 MOL      0.299411
    162 N14         4.6780    0.9430    0.9750 n         1 MOL     -0.066312
    163 C49         3.9110    1.1310    2.1790 c3        1 MOL     -0.244150
    164 C50         4.4730    0.3830    3.4150 c         1 MOL      0.419956
    165 O22         4.4110    0.8570    4.5870 o         1 MOL     -0.560485
    166 C51         2.4940    0.6610    1.7050 c3        1 MOL      0.250389
    167 C52         1.8720    1.4920    0.6370 c3        1 MOL     -0.120015
    168 C53         0.5500    0.9200    0.1500 c         1 MOL      0.614857
    169 O23        -0.5280    1.5760   -0.0010 o         1 MOL     -0.722792
    170 O24         0.4300   -0.3630   -0.1020 o         1 MOL     -0.722792
    171 H80         4.2550    0.4690    0.1930 hn        1 MOL     -0.051507
    172 H81         3.8230    2.1680    2.5000 h1        1 MOL      0.119588
    173 H82         1.7760    0.6100    2.5260 hc        1 MOL     -0.004739
    174 H83         2.5800   -0.3790    1.4060 hc        1 MOL     -0.004739
    175 H84         2.5490    1.5500   -0.2140 hc        1 MOL     -0.020854
    176 H85         1.5960    2.4710    1.0310 hc        1 MOL     -0.020854
    177 N15         5.0630   -0.7730    3.2150 n         1 MOL      0.036881
    178 C54         5.8340   -1.4720    4.1900 c3        1 MOL     -0.427993
    179 H86         6.1110   -0.7880    4.9910 h1        1 MOL      0.138607
    180 H87         5.2440   -2.2920    4.6010 h1        1 MOL      0.138607
    181 H88         6.7350   -1.8700    3.7240 h1        1 MOL      0.138607
    182 H89         5.0480   -1.1270    2.2690 hn        1 MOL      0.161494
    183 Ca1        -1.8700   -0.3100   -1.2680 Ca        1 MOL      1.773219
    184 O25        -1.2370   -2.5790   -2.5310 oh        1 MOL     -0.871934
    185 H90        -1.8230   -3.2770   -2.2600 ho        1 MOL      0.400417
    186 H91        -0.9090   -2.8570   -3.3890 ho        1 MOL      0.400417
    187 O26        -0.7060    0.1300   -3.6630 oh        1 MOL     -0.871934
    188 H92        -1.3140    0.8110   -3.9440 ho        1 MOL      0.400417
    189 H93        -0.0640    0.0710   -4.3690 ho        1 MOL      0.400417
@<TRIPOS>BOND
     1    1    2 1   
     2    1    4 1   
     3    1    5 1   
     4    1    6 1   
     5    2    3 2   
     6    2    7 1   
     7    7    8 1   
     8    7   15 1   
     9    8    9 1   
    10    8   11 1   
    11    8   16 1   
    12    9   10 2   
    13    9   19 1   
    14   11   12 1   
    15   11   17 1   
    16   11   18 1   
    17   12   13 1   
    18   12   14 1   
    19   19   20 1   
    20   19   28 1   
    21   20   21 1   
    22   20   23 1   
    23   20   29 1   
    24   21   22 2   
    25   21   41 1   
    26   23   24 1   
    27   23   30 1   
    28   23   31 1   
    29   24   25 1   
    30   24   32 1   
    31   24   33 1   
    32   25   26 1   
    33   25   34 1   
    34   25   35 1   
    35   26   27 1   
    36   26   36 1   
    37   26   37 1   
    38   27   38 1   
    39   27   39 1   
    40   27   40 1   
    41   41   42 1   
    42   41   49 1   
    43   42   43 1   
    44   42   45 1   
    45   42   50 1   
    46   43   44 2   
    47   43   53 1   
    48   45   46 1   
    49   45   51 1   
    50   45   52 1   
    51   46   47 1   
    52   46   48 1   
    53   53   54 1   
    54   53   57 1   
    55   54   55 1   
    56   54   58 1   
    57   54   59 1   
    58   55   56 2   
    59   55   60 1   
    60   60   61 1   
    61   60   68 1   
    62   61   62 1   
    63   61   64 1   
    64   61   69 1   
    65   62   63 2   
    66   62   72 1   
    67   64   65 1   
    68   64   70 1   
    69   64   71 1   
    70   65   66 1   
    71   65   67 1   
    72   72   73 1   
    73   72   76 1   
    74   73   74 1   
    75   73   77 1   
    76   73   78 1   
    77   74   75 2   
    78   74   79 1   
    79   79   80 1   
    80   79   86 1   
    81   80   81 1   
    82   80   83 1   
    83   80   87 1   
    84   81   82 2   
    85   81   93 1   
    86   83   84 1   
    87   83   85 1   
    88   83   88 1   
    89   84   90 1   
    90   84   91 1   
    91   84   92 1   
    92   85   89 1   
    93   93   94 1   
    94   93  101 1   
    95   94   95 1   
    96   94   97 1   
    97   94  102 1   
    98   95   96 2   
    99   95  112 1   
   100   97   98 1   
   101   97   99 1   
   102   97  103 1   
   103   98  100 1   
   104   98  104 1   
   105   98  105 1   
   106   99  106 1   
   107   99  107 1   
   108   99  108 1   
   109  100  109 1   
   110  100  110 1   
   111  100  111 1   
   112  112  113 1   
   113  112  119 1   
   114  113  114 1   
   115  113  116 1   
   116  113  120 1   
   117  114  115 2   
   118  114  126 1   
   119  116  117 1   
   120  116  118 1   
   121  116  121 1   
   122  117  123 1   
   123  117  124 1   
   124  117  125 1   
   125  118  122 1   
   126  126  127 1   
   127  126  133 1   
   128  127  128 1   
   129  127  130 1   
   130  127  134 1   
   131  128  129 2   
   132  128  140 1   
   133  130  131 1   
   134  130  132 1   
   135  130  135 1   
   136  131  137 1   
   137  131  138 1   
   138  131  139 1   
   139  132  136 1   
   140  140  141 1   
   141  140  149 1   
   142  141  142 1   
   143  141  144 1   
   144  141  150 1   
   145  142  143 2   
   146  142  162 1   
   147  144  145 1   
   148  144  151 1   
   149  144  152 1   
   150  145  146 1   
   151  145  153 1   
   152  145  154 1   
   153  146  147 1   
   154  146  155 1   
   155  146  156 1   
   156  147  148 1   
   157  147  157 1   
   158  147  158 1   
   159  148  159 1   
   160  148  160 1   
   161  148  161 1   
   162  162  163 1   
   163  162  171 1   
   164  163  164 1   
   165  163  166 1   
   166  163  172 1   
   167  164  165 2   
   168  164  177 1   
   169  166  167 1   
   170  166  173 1   
   171  166  174 1   
   172  167  168 1   
   173  167  175 1   
   174  167  176 1   
   175  168  169 1   
   176  168  170 1   
   177  177  178 1   
   178  177  182 1   
   179  178  179 1   
   180  178  180 1   
   181  178  181 1   
   182  184  185 1   
   183  184  186 1   
   184  187  188 1   
   185  187  189 1   
@<TRIPOS>SUBSTRUCTURE
     1 MOL         1 TEMP              0 ****  ****    0 ROOT
