@<TRIPOS>MOLECULE
MOL
  179   176     1     0     0
SMALL
resp


@<TRIPOS>ATOM
      1 C1          0.8960    2.8410    6.6290 c3        1 MOL     -0.259465
      2 C2          0.8630    2.2780    5.2270 c         1 MOL      0.682700
      3 O1          1.9020    1.9990    4.5280 o         1 MOL     -0.591745
      4 H1          0.2360    2.2560    7.2700 hc        1 MOL      0.069577
      5 H2          1.9130    2.7930    7.0170 hc        1 MOL      0.069577
      6 H3          0.5610    3.8780    6.6130 hc        1 MOL      0.069577
      7 N1         -0.3340    2.1980    4.7070 n         1 MOL     -0.463780
      8 C3         -0.4770    2.1270    3.2860 c3        1 MOL     -0.243665
      9 C4         -0.2400    3.4690    2.5730 c         1 MOL      0.742716
     10 O2         -0.8110    4.5250    2.9110 o         1 MOL     -0.561689
     11 C5         -1.8750    1.4980    2.9640 c3        1 MOL      0.208617
     12 C6         -2.1930    1.2040    1.4910 c         1 MOL      0.201368
     13 O3         -1.4350    1.6820    0.6580 o         1 MOL     -0.576454
     14 O4         -3.1750    0.4590    1.2250 o         1 MOL     -0.576454
     15 H4         -1.1260    2.4730    5.2680 hn        1 MOL      0.303432
     16 H5          0.2610    1.4090    2.9280 h1        1 MOL      0.105694
     17 H6         -2.6750    2.1740    3.2500 hc        1 MOL     -0.014339
     18 H7         -1.9250    0.5900    3.5540 hc        1 MOL     -0.014339
     19 N2          0.7270    3.4980    1.6570 n         1 MOL     -0.389248
     20 C7          1.1710    4.5890    0.8210 c3        1 MOL     -0.171050
     21 C8         -0.0070    5.2970    0.0350 c         1 MOL      0.487761
     22 O5         -0.0170    6.5190   -0.0520 o         1 MOL     -0.572192
     23 C9          2.2600    4.0970   -0.2160 c3        1 MOL     -0.020463
     24 C10         2.9880    5.3230   -0.8540 c3        1 MOL     -0.110392
     25 C11         4.1990    4.7600   -1.6590 c3        1 MOL     -0.119474
     26 C12         4.8530    5.9570   -2.4370 c3        1 MOL      0.029777
     27 N3          4.3430    6.1950   -3.8150 n4        1 MOL     -0.402621
     28 H8          1.0200    2.5700    1.3870 hn        1 MOL      0.279342
     29 H9          1.6270    5.3300    1.4870 h1        1 MOL      0.137654
     30 H10         1.8710    3.5110   -1.0530 hc        1 MOL      0.077651
     31 H11         3.0040    3.5620    0.3710 hc        1 MOL      0.077651
     32 H12         3.3710    5.9180   -0.0270 hc        1 MOL      0.064051
     33 H13         2.3030    5.9460   -1.4230 hc        1 MOL      0.064051
     34 H14         3.9130    3.8990   -2.2670 hc        1 MOL      0.098666
     35 H15         4.8900    4.3840   -0.8950 hc        1 MOL      0.098666
     36 H16         5.8650    5.5780   -2.5450 hx        1 MOL      0.086419
     37 H17         5.0200    6.8370   -1.8200 hx        1 MOL      0.086419
     38 H18         4.5220    5.3480   -4.3250 hn        1 MOL      0.342402
     39 H19         3.4110    6.5690   -3.8860 hn        1 MOL      0.342402
     40 H20         4.9180    6.8830   -4.2890 hn        1 MOL      0.342402
     41 N4         -1.0330    4.6280   -0.5090 n         1 MOL     -0.191822
     42 C13        -2.1430    5.2750   -1.1360 c3        1 MOL     -0.005650
     43 C14        -3.4820    4.9880   -0.4620 c         1 MOL      0.449712
     44 O6         -4.5080    5.4330   -0.9340 o         1 MOL     -0.529531
     45 C15        -2.1470    4.9190   -2.6390 c3        1 MOL     -0.125543
     46 C16        -2.0240    3.4540   -2.9930 c         1 MOL      0.766296
     47 O7         -2.2950    2.6700   -2.0660 o         1 MOL     -0.719041
     48 O8         -1.7580    3.1710   -4.1670 o         1 MOL     -0.719041
     49 H21        -1.0950    3.6190   -0.4390 hn        1 MOL      0.144444
     50 H22        -2.0280    6.3520   -1.1790 h1        1 MOL      0.111469
     51 H23        -1.2800    5.3980   -3.0800 hc        1 MOL      0.023753
     52 H24        -3.0750    5.3620   -3.0080 hc        1 MOL      0.023753
     53 N5         -3.5420    4.2680    0.6400 n         1 MOL     -0.149852
     54 C17        -4.6420    3.8640    1.4330 c3        1 MOL     -0.035947
     55 C18        -5.6970    2.9210    0.7780 c         1 MOL      0.419864
     56 O9         -6.9070    2.9960    0.9860 o         1 MOL     -0.565953
     57 H25        -2.6500    3.9080    0.9480 hn        1 MOL      0.106606
     58 H26        -5.2180    4.7110    1.8180 h1        1 MOL      0.059310
     59 H27        -4.2960    3.2880    2.2860 h1        1 MOL      0.059310
     60 N6         -5.2130    2.1540   -0.1590 n         1 MOL      0.000744
     61 C19        -6.0510    1.3440   -1.0860 c3        1 MOL     -0.129825
     62 C20        -6.5000    0.0440   -0.3400 c         1 MOL      0.513603
     63 O10        -7.1830   -0.8420   -0.8850 o         1 MOL     -0.507125
     64 C21        -5.4200    1.0490   -2.5070 c3        1 MOL     -0.437059
     65 C22        -4.6030   -0.2130   -2.5690 c         1 MOL      0.492307
     66 N7         -4.8260   -1.0540   -3.5350 n         1 MOL     -0.731741
     67 O11        -3.8200   -0.3980   -1.6640 o         1 MOL     -0.502296
     68 H28        -4.2480    2.3880   -0.3610 hn        1 MOL      0.138251
     69 H29        -7.0380    1.7940   -1.1430 h1        1 MOL      0.138622
     70 H30        -4.9110    1.9520   -2.8540 hc        1 MOL      0.180508
     71 H31        -6.2570    0.7370   -3.1260 hc        1 MOL      0.180508
     72 H32        -5.6770   -0.8870   -4.0540 hn        1 MOL      0.386320
     73 H33        -4.2800   -1.9010   -3.4650 hn        1 MOL      0.386320
     74 N8         -6.0710   -0.0990    0.9330 n         1 MOL     -0.361120
     75 C23        -6.3670   -1.2630    1.7990 c3        1 MOL     -0.151602
     76 C24        -5.4430   -2.4290    1.6700 c         1 MOL      0.457030
     77 O12        -5.6720   -3.5780    2.1150 o         1 MOL     -0.532768
     78 H34        -5.2920    0.4680    1.2480 hn        1 MOL      0.286084
     79 H35        -7.4210   -1.5330    1.7730 h1        1 MOL      0.117993
     80 H36        -6.1910   -0.8870    2.8050 h1        1 MOL      0.117993
     81 N9         -4.3190   -2.1920    1.0200 n         1 MOL     -0.309154
     82 C25        -3.2880   -3.1810    0.6910 c3        1 MOL      0.197401
     83 C26        -1.8470   -2.5880    0.7280 c         1 MOL      0.337779
     84 O13        -1.5390   -1.5720    0.1610 o         1 MOL     -0.299774
     85 C27        -3.5190   -3.9140   -0.7060 c3        1 MOL     -0.001592
     86 C28        -4.8380   -4.6470   -0.7710 ca        1 MOL      0.078009
     87 C29        -4.8940   -5.9650   -0.3880 ca        1 MOL     -0.292455
     88 C30        -5.9730   -4.0340   -1.4000 ca        1 MOL     -0.292455
     89 C31        -6.0910   -6.6540   -0.4350 ca        1 MOL     -0.084511
     90 C32        -7.1790   -4.7550   -1.4610 ca        1 MOL     -0.084511
     91 C33        -7.1980   -6.0860   -1.0280 ca        1 MOL      0.216821
     92 O14        -8.1840   -6.9790   -1.2580 oh        1 MOL     -0.475455
     93 H37        -4.1830   -1.2180    0.7930 hn        1 MOL      0.232457
     94 H38        -3.3580   -3.9800    1.4160 h1        1 MOL      0.038400
     95 H39        -2.6570   -4.5570   -0.9030 hc        1 MOL     -0.000501
     96 H40        -3.4700   -3.1840   -1.5160 hc        1 MOL     -0.000501
     97 H41        -3.9740   -6.3760    0.0070 ha        1 MOL      0.151978
     98 H42        -5.9470   -3.0210   -1.7780 ha        1 MOL      0.151978
     99 H43        -6.0810   -7.6890   -0.1290 ha        1 MOL      0.113738
    100 H44        -8.0310   -4.2050   -1.8380 ha        1 MOL      0.113738
    101 H45        -8.8400   -6.5320   -1.7970 ho        1 MOL      0.352117
    102 N10        -0.9730   -3.2300    1.4730 n         1 MOL     -0.641872
    103 C34         0.4500   -2.8680    1.5560 c3        1 MOL      0.194936
    104 C35         1.4340   -3.9260    0.9000 c         1 MOL      0.559413
    105 O15         1.3810   -5.1260    1.2260 o         1 MOL     -0.546491
    106 C36         0.7630   -2.6060    3.0010 c3        1 MOL      0.126956
    107 C37        -0.2100   -1.6030    3.7200 c3        1 MOL      0.254291
    108 C38         2.1800   -2.1650    3.2010 c3        1 MOL     -0.266887
    109 C39         0.0330   -1.1710    5.1150 c3        1 MOL     -0.369632
    110 H46        -1.3070   -4.0200    2.0010 hn        1 MOL      0.328131
    111 H47         0.6360   -1.9200    1.0370 h1        1 MOL      0.003995
    112 H48         0.6430   -3.6180    3.3840 hc        1 MOL     -0.012414
    113 H49        -1.1560   -2.1370    3.7920 hc        1 MOL     -0.022797
    114 H50        -0.3590   -0.7280    3.0910 hc        1 MOL     -0.022797
    115 H51         2.4350   -2.1200    4.2610 hc        1 MOL      0.051618
    116 H52         2.8830   -2.8360    2.7120 hc        1 MOL      0.051618
    117 H53         2.4110   -1.2080    2.7460 hc        1 MOL      0.051618
    118 H54         0.9090   -0.5170    5.1240 hc        1 MOL      0.078017
    119 H55        -0.7660   -0.5460    5.5180 hc        1 MOL      0.078017
    120 H56         0.2460   -2.0390    5.7470 hc        1 MOL      0.078017
    121 N11         2.4800   -3.3980    0.2130 n         1 MOL     -0.395563
    122 C40         3.5700   -4.2150   -0.3320 c3        1 MOL      0.098863
    123 C41         4.9910   -3.8300    0.0580 c         1 MOL      0.471146
    124 O16         5.2140   -2.8190    0.7270 o         1 MOL     -0.426581
    125 C42         3.4050   -3.9630   -1.8470 c3        1 MOL     -0.068867
    126 O17         3.6310   -2.5440   -2.0560 oh        1 MOL     -0.466734
    127 H57         2.5960   -2.4040    0.2680 hn        1 MOL      0.230055
    128 H58         3.3360   -5.2670   -0.1950 h1        1 MOL      0.070892
    129 H59         2.5100   -4.3510   -2.3270 h1        1 MOL      0.069972
    130 H60         4.0770   -4.5840   -2.4440 h1        1 MOL      0.069972
    131 H61         3.4070   -2.3740   -2.9730 ho        1 MOL      0.397762
    132 N12         5.9550   -4.5880   -0.4680 n         1 MOL     -0.434043
    133 C43         7.3800   -4.4530   -0.1920 c3        1 MOL      0.169649
    134 C44         7.9160   -3.0900   -0.6260 c         1 MOL      0.414879
    135 O18         8.8540   -2.5480   -0.0390 o         1 MOL     -0.495722
    136 C45         8.2060   -5.5810   -0.7630 c3        1 MOL     -0.313336
    137 H62         5.7120   -5.3910   -1.0290 hn        1 MOL      0.275501
    138 H63         7.4350   -4.5170    0.8910 h1        1 MOL      0.071702
    139 H64         7.6640   -6.4940   -0.5140 hc        1 MOL      0.100138
    140 H65         8.2470   -5.4060   -1.8430 hc        1 MOL      0.100138
    141 H66         9.2120   -5.5590   -0.3570 hc        1 MOL      0.100138
    142 N13         7.4370   -2.4780   -1.7480 n         1 MOL     -0.298065
    143 C46         7.7900   -1.1380   -2.1110 c3        1 MOL      0.122287
    144 C47         7.1790   -0.0720   -1.1770 c         1 MOL      0.267356
    145 O19         7.8220    0.9780   -0.8130 o         1 MOL     -0.498631
    146 C48         7.4590   -0.9720   -3.6060 c3        1 MOL     -0.347502
    147 H67         6.7730   -2.9140   -2.3730 hn        1 MOL      0.203202
    148 H68         8.8700   -1.0720   -2.0110 h1        1 MOL      0.089895
    149 H69         6.3890   -1.0550   -3.7960 hc        1 MOL      0.096441
    150 H70         7.8890   -0.0130   -3.9050 hc        1 MOL      0.096441
    151 H71         8.0370   -1.6830   -4.1850 hc        1 MOL      0.096441
    152 N14         5.9120   -0.2590   -0.8770 n         1 MOL      0.055367
    153 C49         5.2290    0.7340   -0.0300 c3        1 MOL     -0.406475
    154 C50         5.6840    0.6390    1.4530 c         1 MOL      0.593406
    155 O20         5.6190    1.6410    2.1310 o         1 MOL     -0.537457
    156 C51         3.7090    0.4720   -0.1210 c3        1 MOL      0.220185
    157 C52         3.1670    0.6220   -1.5500 c3        1 MOL      0.058124
    158 C53         1.6700    0.4740   -1.6360 c         1 MOL      0.693013
    159 O21         1.0770   -0.4640   -1.1000 o         1 MOL     -0.782695
    160 O22         0.9520    1.4270   -2.0570 o         1 MOL     -0.782695
    161 H72         5.3400   -1.0430   -1.1580 hn        1 MOL      0.104886
    162 H73         5.4690    1.7420   -0.3500 h1        1 MOL      0.127384
    163 H74         3.1740    1.2090    0.4860 hc        1 MOL     -0.013368
    164 H75         3.5540   -0.5470    0.2140 hc        1 MOL     -0.013368
    165 H76         3.6370   -0.1150   -2.1960 hc        1 MOL     -0.084598
    166 H77         3.4380    1.5970   -1.9480 hc        1 MOL     -0.084598
    167 N15         6.1700   -0.5020    1.9680 n         1 MOL     -0.230566
    168 C54         6.7560   -0.4890    3.3660 c3        1 MOL     -0.186132
    169 H78         6.0850   -1.0140    4.0450 h1        1 MOL      0.096385
    170 H79         7.7260   -0.9860    3.3590 h1        1 MOL      0.096385
    171 H80         6.8770    0.5410    3.7000 h1        1 MOL      0.096385
    172 H81         6.1710   -1.3320    1.3840 hn        1 MOL      0.180421
    173 Ca1        -1.3220    0.3160   -1.5710 Ca        1 MOL      1.730619
    174 O23        -0.7850    0.6290   -4.3000 oh        1 MOL     -0.828690
    175 H82        -0.3710    0.3970   -5.1290 ho        1 MOL      0.398904
    176 H83        -0.8600    1.5770   -4.3250 ho        1 MOL      0.398904
    177 O24        -1.2780   -2.0820   -3.0910 oh        1 MOL     -0.828690
    178 H84        -1.0210   -2.9910   -2.9300 ho        1 MOL      0.398904
    179 H85        -1.7770   -2.1130   -3.9060 ho        1 MOL      0.398904
@<TRIPOS>BOND
     1    1    2 1   
     2    1    4 1   
     3    1    5 1   
     4    1    6 1   
     5    2    3 2   
     6    2    7 1   
     7    7    8 1   
     8    7   15 1   
     9    8    9 1   
    10    8   11 1   
    11    8   16 1   
    12    9   10 2   
    13    9   19 1   
    14   11   12 1   
    15   11   17 1   
    16   11   18 1   
    17   12   13 1   
    18   12   14 1   
    19   19   20 1   
    20   19   28 1   
    21   20   21 1   
    22   20   23 1   
    23   20   29 1   
    24   21   22 2   
    25   21   41 1   
    26   23   24 1   
    27   23   30 1   
    28   23   31 1   
    29   24   25 1   
    30   24   32 1   
    31   24   33 1   
    32   25   26 1   
    33   25   34 1   
    34   25   35 1   
    35   26   27 1   
    36   26   36 1   
    37   26   37 1   
    38   27   38 1   
    39   27   39 1   
    40   27   40 1   
    41   41   42 1   
    42   41   49 1   
    43   42   43 1   
    44   42   45 1   
    45   42   50 1   
    46   43   44 2   
    47   43   53 1   
    48   45   46 1   
    49   45   51 1   
    50   45   52 1   
    51   46   47 1   
    52   46   48 1   
    53   53   54 1   
    54   53   57 1   
    55   54   55 1   
    56   54   58 1   
    57   54   59 1   
    58   55   56 2   
    59   55   60 1   
    60   60   61 1   
    61   60   68 1   
    62   61   62 1   
    63   61   64 1   
    64   61   69 1   
    65   62   63 2   
    66   62   74 1   
    67   64   65 1   
    68   64   70 1   
    69   64   71 1   
    70   65   66 1   
    71   65   67 2   
    72   66   72 1   
    73   66   73 1   
    74   74   75 1   
    75   74   78 1   
    76   75   76 1   
    77   75   79 1   
    78   75   80 1   
    79   76   77 2   
    80   76   81 1   
    81   81   82 1   
    82   81   93 1   
    83   82   83 1   
    84   82   85 1   
    85   82   94 1   
    86   83   84 2   
    87   83  102 1   
    88   85   86 1   
    89   85   95 1   
    90   85   96 1   
    91   86   87 ar  
    92   86   88 ar  
    93   87   89 ar  
    94   87   97 1   
    95   88   90 ar  
    96   88   98 1   
    97   89   91 ar  
    98   89   99 1   
    99   90   91 ar  
   100   90  100 1   
   101   91   92 1   
   102   92  101 1   
   103  102  103 1   
   104  102  110 1   
   105  103  104 1   
   106  103  106 1   
   107  103  111 1   
   108  104  105 2   
   109  104  121 1   
   110  106  107 1   
   111  106  108 1   
   112  106  112 1   
   113  107  109 1   
   114  107  113 1   
   115  107  114 1   
   116  108  115 1   
   117  108  116 1   
   118  108  117 1   
   119  109  118 1   
   120  109  119 1   
   121  109  120 1   
   122  121  122 1   
   123  121  127 1   
   124  122  123 1   
   125  122  125 1   
   126  122  128 1   
   127  123  124 2   
   128  123  132 1   
   129  125  126 1   
   130  125  129 1   
   131  125  130 1   
   132  126  131 1   
   133  132  133 1   
   134  132  137 1   
   135  133  134 1   
   136  133  136 1   
   137  133  138 1   
   138  134  135 2   
   139  134  142 1   
   140  136  139 1   
   141  136  140 1   
   142  136  141 1   
   143  142  143 1   
   144  142  147 1   
   145  143  144 1   
   146  143  146 1   
   147  143  148 1   
   148  144  145 2   
   149  144  152 1   
   150  146  149 1   
   151  146  150 1   
   152  146  151 1   
   153  152  153 1   
   154  152  161 1   
   155  153  154 1   
   156  153  156 1   
   157  153  162 1   
   158  154  155 2   
   159  154  167 1   
   160  156  157 1   
   161  156  163 1   
   162  156  164 1   
   163  157  158 1   
   164  157  165 1   
   165  157  166 1   
   166  158  159 1   
   167  158  160 1   
   168  167  168 1   
   169  167  172 1   
   170  168  169 1   
   171  168  170 1   
   172  168  171 1   
   173  174  175 1   
   174  174  176 1   
   175  177  178 1   
   176  177  179 1   
@<TRIPOS>SUBSTRUCTURE
     1 MOL         1 TEMP              0 ****  ****    0 ROOT
