@<TRIPOS>MOLECULE
MOL
  179   176     1     0     0
SMALL
resp


@<TRIPOS>ATOM
      1 C1          2.4770    3.4240    4.2990 c3        1 MOL     -0.372119
      2 C2          1.5940    3.1150    3.0450 c         1 MOL      0.663059
      3 O1          2.0910    3.2530    1.9360 o         1 MOL     -0.596663
      4 H1          3.3800    3.9500    3.9870 hc        1 MOL      0.092680
      5 H2          1.9160    4.0490    4.9940 hc        1 MOL      0.092680
      6 H3          2.7530    2.4900    4.7900 hc        1 MOL      0.092680
      7 N1          0.3020    2.8740    3.2340 n         1 MOL     -0.565504
      8 C3         -0.6370    2.5620    2.1490 c3        1 MOL      0.157248
      9 C4         -1.3140    3.7910    1.4620 c         1 MOL      0.596488
     10 O2         -2.4830    4.1010    1.7220 o         1 MOL     -0.482877
     11 C5         -1.7170    1.6090    2.5870 c3        1 MOL     -0.243270
     12 C6         -2.7040    1.1970    1.4370 c         1 MOL      0.737695
     13 O3         -3.8870    0.8970    1.7500 o         1 MOL     -0.687610
     14 O4         -2.3350    1.2690    0.2280 o         1 MOL     -0.687610
     15 H4         -0.0390    2.8290    4.1830 hn        1 MOL      0.332341
     16 H5          0.0030    1.9870    1.4780 h1        1 MOL      0.024625
     17 H6         -2.2910    2.1080    3.3760 hc        1 MOL      0.043584
     18 H7         -1.2670    0.6930    2.9710 hc        1 MOL      0.043584
     19 N2         -0.4740    4.5580    0.7590 n         1 MOL     -0.755734
     20 C7         -0.8220    5.9570    0.4240 c3        1 MOL      0.315894
     21 C8         -2.0320    5.9270   -0.5020 c         1 MOL      0.362279
     22 O5         -2.9270    6.7520   -0.3080 o         1 MOL     -0.542174
     23 C9          0.3520    6.6240   -0.2720 c3        1 MOL     -0.610739
     24 C10         1.6680    6.7930    0.5530 c3        1 MOL      0.504214
     25 C11         2.6090    7.7450   -0.1990 c3        1 MOL     -0.161538
     26 C12         4.0410    7.6760    0.3780 c3        1 MOL     -0.022651
     27 N3          4.0510    7.6560    1.8610 n4        1 MOL     -0.346683
     28 H8          0.4710    4.2410    0.5940 hn        1 MOL      0.471278
     29 H9         -1.1560    6.6260    1.2140 h1        1 MOL      0.038204
     30 H10        -0.0750    7.5820   -0.5760 hc        1 MOL      0.168767
     31 H11         0.6470    6.0180   -1.1300 hc        1 MOL      0.168767
     32 H12         2.0420    5.7860    0.7160 hc        1 MOL     -0.097316
     33 H13         1.4630    7.1950    1.5450 hc        1 MOL     -0.097316
     34 H14         2.2250    8.7670   -0.2440 hc        1 MOL      0.059933
     35 H15         2.6680    7.3530   -1.2140 hc        1 MOL      0.059933
     36 H16         4.7020    8.4410   -0.0280 hx        1 MOL      0.113987
     37 H17         4.4180    6.7270   -0.0110 hx        1 MOL      0.113987
     38 H18         3.5590    8.4280    2.2670 hn        1 MOL      0.320841
     39 H19         3.7480    6.7750    2.2770 hn        1 MOL      0.320841
     40 H20         4.9910    7.6700    2.2210 hn        1 MOL      0.320841
     41 N4         -2.0670    4.8790   -1.3540 n         1 MOL     -0.100150
     42 C13        -3.0690    4.7220   -2.3870 c3        1 MOL     -0.101340
     43 C14        -4.4380    4.1650   -1.8830 c         1 MOL      0.390321
     44 O6         -5.4350    4.1880   -2.5970 o         1 MOL     -0.509468
     45 C15        -2.3950    3.8840   -3.5550 c3        1 MOL     -0.175866
     46 C16        -1.8130    2.6190   -3.0240 c         1 MOL      0.686910
     47 O7         -2.3830    1.5520   -3.0800 o         1 MOL     -0.674536
     48 O8         -0.7210    2.6530   -2.3540 o         1 MOL     -0.674536
     49 H21        -1.3460    4.1740   -1.3620 hn        1 MOL      0.087707
     50 H22        -3.1990    5.7340   -2.7790 h1        1 MOL      0.116166
     51 H23        -1.6370    4.4910   -4.0430 hc        1 MOL      0.054276
     52 H24        -3.2280    3.6730   -4.2330 hc        1 MOL      0.054276
     53 N5         -4.5440    3.8580   -0.6020 n         1 MOL     -0.105381
     54 C17        -5.9100    3.6830   -0.0210 c3        1 MOL      0.002680
     55 C18        -6.6620    2.4800   -0.4720 c         1 MOL      0.388808
     56 O9         -7.8800    2.5630   -0.5450 o         1 MOL     -0.535980
     57 H25        -3.7640    3.9720    0.0350 hn        1 MOL      0.186220
     58 H26        -6.5010    4.5380   -0.3640 h1        1 MOL      0.060822
     59 H27        -5.9010    3.8580    1.0580 h1        1 MOL      0.060822
     60 N6         -5.9150    1.4170   -0.7810 n         1 MOL     -0.003186
     61 C19        -6.4130    0.1880   -1.2910 c3        1 MOL     -0.130974
     62 C20        -6.6170   -0.9130   -0.2150 c         1 MOL      0.309383
     63 O10        -7.1710   -2.0110   -0.5710 o         1 MOL     -0.489441
     64 C21        -5.4990   -0.2970   -2.4520 c3        1 MOL     -0.049215
     65 C22        -4.4790   -1.3850   -2.0830 c         1 MOL      0.161683
     66 N7         -4.5540   -2.6060   -2.5680 n         1 MOL     -0.492966
     67 O11        -3.6780   -1.1400   -1.2430 o         1 MOL     -0.329767
     68 H28        -4.9530    1.4420   -0.4730 hn        1 MOL      0.015460
     69 H29        -7.4130    0.4090   -1.6610 h1        1 MOL      0.130660
     70 H30        -5.0890    0.5700   -2.9650 hc        1 MOL      0.083701
     71 H31        -6.2030   -0.6580   -3.2080 hc        1 MOL      0.083701
     72 H32        -5.2030   -2.6650   -3.3380 hn        1 MOL      0.300031
     73 H33        -3.6730   -3.1120   -2.5570 hn        1 MOL      0.300031
     74 N8         -6.1680   -0.6730    1.0090 n         1 MOL     -0.081683
     75 C23        -6.1980   -1.4530    2.2300 c3        1 MOL     -0.289851
     76 C24        -5.0450   -2.4550    2.2420 c         1 MOL      0.634409
     77 O12        -5.1230   -3.3860    3.0390 o         1 MOL     -0.576753
     78 H34        -5.7340    0.2370    1.1250 hn        1 MOL      0.221774
     79 H35        -7.1140   -2.0370    2.3380 h1        1 MOL      0.135947
     80 H36        -5.9470   -0.8750    3.1230 h1        1 MOL      0.135947
     81 N9         -3.9800   -2.2630    1.4880 n         1 MOL     -0.359192
     82 C25        -2.7560   -3.0750    1.5260 c3        1 MOL      0.380034
     83 C26        -1.4170   -2.3230    1.5290 c         1 MOL      0.249393
     84 O13        -1.3460   -1.2450    0.9900 o         1 MOL     -0.474611
     85 C27        -2.7740   -4.0910    0.3390 c3        1 MOL      0.159675
     86 C28        -3.8870   -5.0870    0.3400 ca        1 MOL     -0.118060
     87 C29        -3.6970   -6.4620    0.6310 ca        1 MOL     -0.059479
     88 C30        -5.1710   -4.6200    0.0850 ca        1 MOL     -0.059479
     89 C31        -4.8280   -7.3770    0.5820 ca        1 MOL     -0.305790
     90 C32        -6.2850   -5.5130    0.0780 ca        1 MOL     -0.305790
     91 C33        -6.1150   -6.8940    0.3120 ca        1 MOL      0.369725
     92 O14        -7.1170   -7.7460    0.3790 oh        1 MOL     -0.495027
     93 H37        -3.9900   -1.4180    0.9480 hn        1 MOL      0.187400
     94 H38        -2.7400   -3.6720    2.4380 h1        1 MOL     -0.038818
     95 H39        -1.8120   -4.6010    0.3760 hc        1 MOL     -0.081629
     96 H40        -2.7660   -3.5080   -0.5860 hc        1 MOL     -0.081629
     97 H41        -2.6730   -6.7950    0.7290 ha        1 MOL      0.082777
     98 H42        -5.4140   -3.6010   -0.1450 ha        1 MOL      0.082777
     99 H43        -4.7350   -8.4160    0.8570 ha        1 MOL      0.152156
    100 H44        -7.2840   -5.1700   -0.1300 ha        1 MOL      0.152156
    101 H45        -7.8950   -7.2780    0.0710 ho        1 MOL      0.380798
    102 N10        -0.3120   -2.9780    1.8950 n         1 MOL     -0.450905
    103 C34         1.0860   -2.4840    1.7720 c3        1 MOL     -0.110805
    104 C35         1.9500   -3.5980    1.1110 c         1 MOL      0.554180
    105 O15         1.9600   -4.7120    1.5620 o         1 MOL     -0.546129
    106 C36         1.6590   -2.1360    3.1820 c3        1 MOL      0.179763
    107 C37         0.9100   -0.9010    3.7340 c3        1 MOL      0.024414
    108 C38         3.1510   -1.7800    3.0650 c3        1 MOL     -0.225923
    109 C39         0.8760   -0.8480    5.2430 c3        1 MOL     -0.213810
    110 H46        -0.3800   -3.9270    2.2540 hn        1 MOL      0.320554
    111 H47         1.1390   -1.6630    1.0580 h1        1 MOL      0.061385
    112 H48         1.5180   -2.9950    3.8370 hc        1 MOL      0.039484
    113 H49        -0.1490   -0.9930    3.4760 hc        1 MOL      0.075037
    114 H50         1.2790    0.0520    3.3460 hc        1 MOL      0.075037
    115 H51         3.6700   -2.5090    2.4480 hc        1 MOL      0.031630
    116 H52         3.3340   -0.7950    2.6350 hc        1 MOL      0.031630
    117 H53         3.6980   -1.9600    3.9910 hc        1 MOL      0.031630
    118 H54         0.5730    0.1390    5.5870 hc        1 MOL      0.039816
    119 H55         0.3750   -1.6900    5.7220 hc        1 MOL      0.039816
    120 H56         1.9290   -0.8650    5.5380 hc        1 MOL      0.039816
    121 N11         2.7360   -3.1820    0.0640 n         1 MOL     -0.336273
    122 C40         3.7780   -3.9870   -0.6680 c3        1 MOL      0.177645
    123 C41         5.2000   -3.4730   -0.2960 c         1 MOL      0.284054
    124 O16         5.2930   -2.3480    0.0970 o         1 MOL     -0.343513
    125 C42         3.6010   -3.9540   -2.1790 c3        1 MOL      0.236212
    126 O17         2.2270   -4.1280   -2.4040 oh        1 MOL     -0.699823
    127 H57         2.7290   -2.1950   -0.1440 hn        1 MOL      0.323914
    128 H58         3.7420   -5.0520   -0.4490 h1        1 MOL      0.048415
    129 H59         4.1180   -4.8120   -2.6170 h1        1 MOL     -0.008254
    130 H60         3.9090   -3.0150   -2.6520 h1        1 MOL     -0.008254
    131 H61         2.1180   -4.6440   -3.1970 ho        1 MOL      0.439972
    132 N12         6.1890   -4.2840   -0.4690 n         1 MOL     -0.449554
    133 C43         7.6110   -3.9950   -0.1130 c3        1 MOL      0.267521
    134 C44         8.1530   -2.7000   -0.6960 c         1 MOL      0.396155
    135 O18         8.7840   -1.9060    0.0170 o         1 MOL     -0.510379
    136 C45         8.3740   -5.2110   -0.5310 c3        1 MOL     -0.282225
    137 H62         5.9950   -5.1950   -0.8440 hn        1 MOL      0.283168
    138 H63         7.6690   -3.9110    0.9720 h1        1 MOL      0.063846
    139 H64         9.3340   -5.1950   -0.0030 hc        1 MOL      0.079587
    140 H65         7.7790   -6.0950   -0.2960 hc        1 MOL      0.079587
    141 H66         8.5110   -5.0290   -1.5930 hc        1 MOL      0.079587
    142 N13         7.6190   -2.2850   -1.8780 n         1 MOL     -0.186589
    143 C46         8.0660   -1.1050   -2.4910 c3        1 MOL      0.043940
    144 C47         7.4500    0.1600   -1.8370 c         1 MOL      0.467919
    145 O19         8.1690    1.1090   -1.6990 o         1 MOL     -0.526088
    146 C48         7.7690   -1.2130   -3.9870 c3        1 MOL     -0.362760
    147 H67         6.9800   -2.9020   -2.3420 hn        1 MOL      0.142895
    148 H68         9.1550   -1.0580   -2.3720 h1        1 MOL      0.092724
    149 H69         8.1870   -0.3640   -4.5260 hc        1 MOL      0.107086
    150 H70         8.3050   -2.0620   -4.4020 hc        1 MOL      0.107086
    151 H71         6.6830   -1.2670   -4.0380 hc        1 MOL      0.107086
    152 N14         6.2300    0.1010   -1.3200 n         1 MOL     -0.203034
    153 C49         5.5570    1.1010   -0.5140 c3        1 MOL     -0.256871
    154 C50         6.1530    1.2210    0.8850 c         1 MOL      0.511991
    155 O20         6.1230    2.3420    1.4390 o         1 MOL     -0.581507
    156 C51         4.1020    0.7300   -0.4470 c3        1 MOL      0.217693
    157 C52         3.4090    0.4630   -1.7920 c3        1 MOL     -0.120924
    158 C53         1.8620    0.2060   -1.7110 c         1 MOL      0.812502
    159 O21         1.2060    0.5570   -0.7470 o         1 MOL     -0.779773
    160 O22         1.2790   -0.3280   -2.6850 o         1 MOL     -0.779773
    161 H72         5.7900   -0.7970   -1.1440 hn        1 MOL      0.170317
    162 H73         5.6220    2.1240   -0.8890 h1        1 MOL      0.145370
    163 H74         3.5050    1.5060    0.0210 hc        1 MOL     -0.012122
    164 H75         3.9530   -0.1500    0.1890 hc        1 MOL     -0.012122
    165 H76         3.7910   -0.4030   -2.3360 hc        1 MOL     -0.014560
    166 H77         3.6040    1.3250   -2.4200 hc        1 MOL     -0.014560
    167 N15         6.7130    0.1140    1.3910 n         1 MOL     -0.053588
    168 C54         7.3820    0.0530    2.6600 c3        1 MOL     -0.304079
    169 H78         8.0600    0.9020    2.7530 h1        1 MOL      0.112688
    170 H79         6.6450    0.0880    3.4620 h1        1 MOL      0.112688
    171 H80         7.9510   -0.8740    2.7270 h1        1 MOL      0.112688
    172 H81         6.6500   -0.7390    0.8480 hn        1 MOL      0.089918
    173 Ca1        -1.2370   -0.1880   -1.4940 Ca        1 MOL      1.668444
    174 O23        -0.0740   -2.7570   -1.5390 oh        1 MOL     -0.744286
    175 H82        -0.6220   -3.5290   -1.6320 ho        1 MOL      0.377806
    176 H83         0.8180   -3.0820   -1.6970 ho        1 MOL      0.377806
    177 O24        -1.5560   -1.3860   -3.9060 oh        1 MOL     -0.744286
    178 H84        -1.3810   -1.3320   -4.8480 ho        1 MOL      0.377806
    179 H85        -1.5360   -2.3240   -3.7110 ho        1 MOL      0.377806
@<TRIPOS>BOND
     1    1    2 1   
     2    1    4 1   
     3    1    5 1   
     4    1    6 1   
     5    2    3 2   
     6    2    7 1   
     7    7    8 1   
     8    7   15 1   
     9    8    9 1   
    10    8   11 1   
    11    8   16 1   
    12    9   10 2   
    13    9   19 1   
    14   11   12 1   
    15   11   17 1   
    16   11   18 1   
    17   12   13 1   
    18   12   14 1   
    19   19   20 1   
    20   19   28 1   
    21   20   21 1   
    22   20   23 1   
    23   20   29 1   
    24   21   22 2   
    25   21   41 1   
    26   23   24 1   
    27   23   30 1   
    28   23   31 1   
    29   24   25 1   
    30   24   32 1   
    31   24   33 1   
    32   25   26 1   
    33   25   34 1   
    34   25   35 1   
    35   26   27 1   
    36   26   36 1   
    37   26   37 1   
    38   27   38 1   
    39   27   39 1   
    40   27   40 1   
    41   41   42 1   
    42   41   49 1   
    43   42   43 1   
    44   42   45 1   
    45   42   50 1   
    46   43   44 2   
    47   43   53 1   
    48   45   46 1   
    49   45   51 1   
    50   45   52 1   
    51   46   47 1   
    52   46   48 1   
    53   53   54 1   
    54   53   57 1   
    55   54   55 1   
    56   54   58 1   
    57   54   59 1   
    58   55   56 2   
    59   55   60 1   
    60   60   61 1   
    61   60   68 1   
    62   61   62 1   
    63   61   64 1   
    64   61   69 1   
    65   62   63 2   
    66   62   74 1   
    67   64   65 1   
    68   64   70 1   
    69   64   71 1   
    70   65   66 1   
    71   65   67 2   
    72   66   72 1   
    73   66   73 1   
    74   74   75 1   
    75   74   78 1   
    76   75   76 1   
    77   75   79 1   
    78   75   80 1   
    79   76   77 2   
    80   76   81 1   
    81   81   82 1   
    82   81   93 1   
    83   82   83 1   
    84   82   85 1   
    85   82   94 1   
    86   83   84 2   
    87   83  102 1   
    88   85   86 1   
    89   85   95 1   
    90   85   96 1   
    91   86   87 ar  
    92   86   88 ar  
    93   87   89 ar  
    94   87   97 1   
    95   88   90 ar  
    96   88   98 1   
    97   89   91 ar  
    98   89   99 1   
    99   90   91 ar  
   100   90  100 1   
   101   91   92 1   
   102   92  101 1   
   103  102  103 1   
   104  102  110 1   
   105  103  104 1   
   106  103  106 1   
   107  103  111 1   
   108  104  105 2   
   109  104  121 1   
   110  106  107 1   
   111  106  108 1   
   112  106  112 1   
   113  107  109 1   
   114  107  113 1   
   115  107  114 1   
   116  108  115 1   
   117  108  116 1   
   118  108  117 1   
   119  109  118 1   
   120  109  119 1   
   121  109  120 1   
   122  121  122 1   
   123  121  127 1   
   124  122  123 1   
   125  122  125 1   
   126  122  128 1   
   127  123  124 2   
   128  123  132 1   
   129  125  126 1   
   130  125  129 1   
   131  125  130 1   
   132  126  131 1   
   133  132  133 1   
   134  132  137 1   
   135  133  134 1   
   136  133  136 1   
   137  133  138 1   
   138  134  135 2   
   139  134  142 1   
   140  136  139 1   
   141  136  140 1   
   142  136  141 1   
   143  142  143 1   
   144  142  147 1   
   145  143  144 1   
   146  143  146 1   
   147  143  148 1   
   148  144  145 2   
   149  144  152 1   
   150  146  149 1   
   151  146  150 1   
   152  146  151 1   
   153  152  153 1   
   154  152  161 1   
   155  153  154 1   
   156  153  156 1   
   157  153  162 1   
   158  154  155 2   
   159  154  167 1   
   160  156  157 1   
   161  156  163 1   
   162  156  164 1   
   163  157  158 1   
   164  157  165 1   
   165  157  166 1   
   166  158  159 1   
   167  158  160 1   
   168  167  168 1   
   169  167  172 1   
   170  168  169 1   
   171  168  170 1   
   172  168  171 1   
   173  174  175 1   
   174  174  176 1   
   175  177  178 1   
   176  177  179 1   
@<TRIPOS>SUBSTRUCTURE
     1 MOL         1 TEMP              0 ****  ****    0 ROOT
