@<TRIPOS>MOLECULE
MOL
  179   176     1     0     0
SMALL
resp


@<TRIPOS>ATOM
      1 C1          0.6410    3.3930    6.2410 c3        1 MOL     -0.277715
      2 C2          0.5860    2.6900    4.8730 c         1 MOL      0.738369
      3 O1          1.5800    2.6090    4.1740 o         1 MOL     -0.601680
      4 H1          0.2070    2.7430    7.0010 hc        1 MOL      0.067701
      5 H2          1.6780    3.6090    6.4970 hc        1 MOL      0.067701
      6 H3          0.0760    4.3250    6.1950 hc        1 MOL      0.067701
      7 N1         -0.5670    2.4100    4.4090 n         1 MOL     -0.556295
      8 C3         -1.0270    2.0670    3.0760 c3        1 MOL     -0.021961
      9 C4         -1.2160    3.3100    2.2390 c         1 MOL      0.693441
     10 O2         -1.7990    4.2750    2.7730 o         1 MOL     -0.579665
     11 C5         -2.2480    1.1410    3.2450 c3        1 MOL     -0.295577
     12 C6         -2.8660    0.5700    2.0100 c         1 MOL      0.790931
     13 O3         -3.6800   -0.3710    2.0300 o         1 MOL     -0.757049
     14 O4         -2.5730    1.0780    0.9290 o         1 MOL     -0.757049
     15 H4         -1.3470    2.5930    5.0180 hn        1 MOL      0.297671
     16 H5         -0.2060    1.4830    2.6560 h1        1 MOL      0.008599
     17 H6         -3.0150    1.7410    3.7320 hc        1 MOL      0.094733
     18 H7         -2.0130    0.2690    3.8610 hc        1 MOL      0.094733
     19 N2         -0.6180    3.4420    1.0640 n         1 MOL     -0.169448
     20 C7         -0.3970    4.6570    0.3790 c3        1 MOL     -0.199926
     21 C8         -1.6110    5.2320   -0.3480 c         1 MOL      0.426039
     22 O5         -1.8960    6.4240   -0.3680 o         1 MOL     -0.540332
     23 C9          0.8130    4.5140   -0.6350 c3        1 MOL     -0.024190
     24 C10         1.2560    5.9220   -1.1580 c3        1 MOL     -0.081892
     25 C11         2.3770    5.7320   -2.1280 c3        1 MOL      0.006278
     26 C12         2.5510    6.9410   -3.0590 c3        1 MOL     -0.025551
     27 N3          2.8830    8.1410   -2.2970 n4        1 MOL     -0.274207
     28 H8         -0.2080    2.5800    0.7350 hn        1 MOL      0.159132
     29 H9         -0.0600    5.4280    1.0800 h1        1 MOL      0.114404
     30 H10         0.4380    3.9300   -1.4760 hc        1 MOL      0.070877
     31 H11         1.6160    3.9990   -0.1190 hc        1 MOL      0.070877
     32 H12         1.5910    6.6670   -0.4430 hc        1 MOL      0.035913
     33 H13         0.4560    6.4490   -1.6870 hc        1 MOL      0.035913
     34 H14         2.2130    4.8200   -2.7080 hc        1 MOL      0.051230
     35 H15         3.2600    5.5720   -1.5110 hc        1 MOL      0.051230
     36 H16         1.6060    7.0170   -3.6070 hx        1 MOL      0.080344
     37 H17         3.3280    6.6240   -3.7630 hx        1 MOL      0.080344
     38 H18         2.0270    8.5100   -1.9030 hn        1 MOL      0.315730
     39 H19         3.6550    8.1110   -1.6520 hn        1 MOL      0.315730
     40 H20         3.1840    8.8450   -2.9640 hn        1 MOL      0.315730
     41 N4         -2.3700    4.3220   -0.9420 n         1 MOL     -0.267813
     42 C13        -3.7270    4.5470   -1.5030 c3        1 MOL      0.080920
     43 C14        -4.8690    4.0790   -0.5740 c         1 MOL      0.449613
     44 O6         -6.0260    4.5150   -0.8040 o         1 MOL     -0.552824
     45 C15        -3.9850    3.8600   -2.9160 c3        1 MOL     -0.293670
     46 C16        -3.5970    2.3120   -2.9400 c         1 MOL      0.638798
     47 O7         -3.1540    1.7480   -1.8260 o         1 MOL     -0.669496
     48 O8         -3.7620    1.6100   -4.0030 o         1 MOL     -0.669496
     49 H21        -2.0290    3.3730   -0.9480 hn        1 MOL      0.197438
     50 H22        -3.8190    5.6170   -1.6870 h1        1 MOL      0.082585
     51 H23        -3.2920    4.2930   -3.6380 hc        1 MOL      0.092203
     52 H24        -5.0360    4.0270   -3.1830 hc        1 MOL      0.092203
     53 N5         -4.6120    3.2460    0.4660 n         1 MOL     -0.154655
     54 C17        -5.5820    2.7530    1.4000 c3        1 MOL     -0.187014
     55 C18        -6.2620    1.4530    1.0890 c         1 MOL      0.622544
     56 O9         -7.0750    0.9120    1.8040 o         1 MOL     -0.590997
     57 H25        -3.6720    2.9540    0.6780 hn        1 MOL      0.167497
     58 H26        -6.3290    3.5330    1.5440 h1        1 MOL      0.098396
     59 H27        -5.1670    2.7020    2.4170 h1        1 MOL      0.098396
     60 N6         -5.9970    0.8860   -0.1090 n         1 MOL     -0.356943
     61 C19        -6.7620   -0.2000   -0.7160 c3        1 MOL     -0.018235
     62 C20        -6.7130   -1.5970    0.0720 c         1 MOL      0.410176
     63 O10        -7.2890   -2.5600   -0.4670 o         1 MOL     -0.527966
     64 C21        -6.1830   -0.4400   -2.0980 c3        1 MOL     -0.399858
     65 C22        -4.8210   -1.1140   -2.1570 c         1 MOL      0.904812
     66 N7         -4.4760   -1.6600   -3.3020 n         1 MOL     -0.769509
     67 O11        -4.0360   -0.9270   -1.2800 o         1 MOL     -0.780977
     68 H28        -5.1150    1.1500   -0.5210 hn        1 MOL      0.259631
     69 H29        -7.7980    0.1110   -0.8340 h1        1 MOL      0.131264
     70 H30        -6.1040    0.4680   -2.6880 hc        1 MOL      0.135101
     71 H31        -6.8570   -1.0990   -2.6460 hc        1 MOL      0.135101
     72 H32        -5.0770   -1.6160   -4.1100 hn        1 MOL      0.349036
     73 H33        -3.6690   -2.2720   -3.2560 hn        1 MOL      0.349036
     74 N8         -5.9630   -1.7930    1.2170 n         1 MOL     -0.134063
     75 C23        -6.1070   -2.9110    2.1630 c3        1 MOL     -0.269524
     76 C24        -4.8950   -3.8110    2.2460 c         1 MOL      0.504543
     77 O12        -4.7620   -4.7780    2.9960 o         1 MOL     -0.591860
     78 H34        -5.3380   -1.0590    1.4930 hn        1 MOL      0.294406
     79 H35        -7.0130   -3.4380    1.8810 h1        1 MOL      0.133117
     80 H36        -6.2240   -2.4900    3.1560 h1        1 MOL      0.133117
     81 N9         -3.8780   -3.5900    1.4590 n         1 MOL     -0.019931
     82 C25        -2.5470   -4.1700    1.5230 c3        1 MOL     -0.011736
     83 C26        -1.3180   -3.2370    1.1970 c         1 MOL      0.398880
     84 O13        -1.4610   -2.3790    0.2930 o         1 MOL     -0.505287
     85 C27        -2.5080   -5.5280    0.8180 c3        1 MOL     -0.048336
     86 C28        -2.6820   -5.4040   -0.6780 ca        1 MOL     -0.057025
     87 C29        -3.9210   -5.1470   -1.2520 ca        1 MOL     -0.053268
     88 C30        -1.5690   -5.4930   -1.5300 ca        1 MOL     -0.053268
     89 C31        -4.0540   -4.7690   -2.5990 ca        1 MOL     -0.339354
     90 C32        -1.7010   -5.1640   -2.9430 ca        1 MOL     -0.339354
     91 C33        -2.9430   -4.7560   -3.4060 ca        1 MOL      0.411547
     92 O14        -3.0610   -4.4180   -4.7420 oh        1 MOL     -0.504331
     93 H37        -3.9870   -2.7380    0.9270 hn        1 MOL      0.103351
     94 H38        -2.3760   -4.5130    2.5480 h1        1 MOL      0.038922
     95 H39        -3.3520   -6.1430    1.1540 hc        1 MOL      0.057650
     96 H40        -1.5820   -6.0930    0.9990 hc        1 MOL      0.057650
     97 H41        -4.7580   -5.1700   -0.5710 ha        1 MOL      0.114986
     98 H42        -0.5650   -5.7300   -1.2020 ha        1 MOL      0.114986
     99 H43        -4.9680   -4.5260   -3.1130 ha        1 MOL      0.152570
    100 H44        -0.8200   -5.1560   -3.5650 ha        1 MOL      0.152570
    101 H45        -2.1930   -4.3290   -5.1170 ho        1 MOL      0.328905
    102 N10        -0.1590   -3.5350    1.8060 n         1 MOL     -0.304842
    103 C34         1.1210   -2.9160    1.4440 c3        1 MOL     -0.000816
    104 C35         2.2290   -3.8410    0.8210 c         1 MOL      0.553255
    105 O15         2.0310   -5.0240    0.8710 o         1 MOL     -0.531079
    106 C36         1.6860   -2.1180    2.6760 c3        1 MOL     -0.143449
    107 C37         2.0930   -3.0840    3.8080 c3        1 MOL     -0.156845
    108 C38         0.6950   -1.0700    3.1550 c3        1 MOL     -0.040529
    109 C39         2.6730   -2.3080    4.9960 c3        1 MOL      0.007204
    110 H46        -0.1490   -4.3250    2.4240 hn        1 MOL      0.279826
    111 H47         0.9110   -2.1350    0.7240 h1        1 MOL      0.049880
    112 H48         2.5400   -1.5600    2.3010 hc        1 MOL      0.070410
    113 H49         2.7780   -3.8600    3.4420 hc        1 MOL      0.067694
    114 H50         1.1930   -3.4930    4.2600 hc        1 MOL      0.067694
    115 H51        -0.1420   -1.5360    3.6680 hc        1 MOL      0.049800
    116 H52         1.1200   -0.2590    3.7380 hc        1 MOL      0.049800
    117 H53         0.2590   -0.6220    2.2640 hc        1 MOL      0.049800
    118 H54         2.8550   -3.0080    5.8100 hc        1 MOL      0.004739
    119 H55         3.6520   -1.9050    4.7590 hc        1 MOL      0.004739
    120 H56         1.9890   -1.5750    5.4000 hc        1 MOL      0.004739
    121 N11         3.2330   -3.1640    0.1630 n         1 MOL     -0.206952
    122 C40         4.4420   -3.7840   -0.4400 c3        1 MOL     -0.039346
    123 C41         5.6750   -2.9470   -0.1010 c         1 MOL      0.458258
    124 O16         5.5610   -1.9410    0.5580 o         1 MOL     -0.392677
    125 C42         4.2200   -3.8800   -1.9440 c3        1 MOL     -0.108160
    126 O17         4.3060   -2.5540   -2.4560 oh        1 MOL     -0.542539
    127 H57         3.3280   -2.1610    0.1760 hn        1 MOL      0.062591
    128 H58         4.5790   -4.7670   -0.0040 h1        1 MOL      0.078617
    129 H59         3.2880   -4.3560   -2.2530 h1        1 MOL      0.108930
    130 H60         5.0780   -4.3620   -2.4030 h1        1 MOL      0.108930
    131 H61         3.4180   -2.2640   -2.6940 ho        1 MOL      0.407334
    132 N12         6.8780   -3.3990   -0.4600 n         1 MOL     -0.364086
    133 C43         8.1290   -2.7660   -0.0590 c3        1 MOL      0.013145
    134 C44         8.2530   -1.3100   -0.6240 c         1 MOL      0.553755
    135 O18         8.5670   -0.4610    0.1510 o         1 MOL     -0.524625
    136 C45         9.2780   -3.6390   -0.6140 c3        1 MOL     -0.239040
    137 H62         6.8630   -4.2700   -0.9800 hn        1 MOL      0.274705
    138 H63         8.0880   -2.8330    1.0330 h1        1 MOL      0.121110
    139 H64         9.0880   -4.6770   -0.3330 hc        1 MOL      0.076666
    140 H65         9.1810   -3.6920   -1.6950 hc        1 MOL      0.076666
    141 H66        10.3080   -3.3680   -0.3880 hc        1 MOL      0.076666
    142 N13         7.8350   -0.9940   -1.8360 n         1 MOL     -0.436635
    143 C46         7.6830    0.4100   -2.2970 c3        1 MOL      0.140120
    144 C47         6.8050    1.3620   -1.4810 c         1 MOL      0.345976
    145 O19         7.0170    2.5490   -1.4010 o         1 MOL     -0.482137
    146 C48         7.3280    0.4100   -3.7850 c3        1 MOL     -0.267588
    147 H67         7.8120   -1.6970   -2.5690 hn        1 MOL      0.288973
    148 H68         8.6940    0.8170   -2.2600 h1        1 MOL      0.073890
    149 H69         7.2510    1.4420   -4.1370 hc        1 MOL      0.077587
    150 H70         8.1420   -0.1240   -4.2800 hc        1 MOL      0.077587
    151 H71         6.4130   -0.1270   -4.0040 hc        1 MOL      0.077587
    152 N14         5.6840    0.8100   -0.8490 n         1 MOL     -0.131164
    153 C49         4.8830    1.6390    0.0540 c3        1 MOL     -0.126797
    154 C50         5.6400    1.8980    1.3130 c         1 MOL      0.511891
    155 O20         5.4600    2.8940    1.9740 o         1 MOL     -0.548359
    156 C51         3.4940    1.0560    0.2920 c3        1 MOL      0.049641
    157 C52         2.6610    0.9520   -0.9640 c3        1 MOL     -0.011299
    158 C53         1.3030    0.2240   -0.7020 c         1 MOL      0.876695
    159 O21         0.4910    0.7890    0.0320 o         1 MOL     -0.769623
    160 O22         0.8850   -0.7400   -1.4040 o         1 MOL     -0.769623
    161 H72         5.4230   -0.1690   -0.8860 hn        1 MOL      0.149616
    162 H73         4.8220    2.6600   -0.3220 h1        1 MOL      0.066895
    163 H74         2.9910    1.6760    1.0370 hc        1 MOL      0.040032
    164 H75         3.5930    0.0870    0.7770 hc        1 MOL      0.040032
    165 H76         3.2060    0.2360   -1.5840 hc        1 MOL     -0.072741
    166 H77         2.4610    1.9020   -1.4450 hc        1 MOL     -0.072741
    167 N15         6.3690    0.8750    1.7570 n         1 MOL     -0.138992
    168 C54         7.1060    0.9020    3.0180 c3        1 MOL     -0.237249
    169 H78         6.4350    0.6380    3.8350 h1        1 MOL      0.097706
    170 H79         7.9260    0.1850    2.9750 h1        1 MOL      0.097706
    171 H80         7.5050    1.9030    3.1840 h1        1 MOL      0.097706
    172 H81         6.2420   -0.0120    1.3000 hn        1 MOL      0.151290
    173 Ca1        -1.6710   -0.1520   -1.0470 Ca        1 MOL      1.772566
    174 O23        -1.2880   -1.7020   -3.2360 oh        1 MOL     -0.853995
    175 H82        -0.8260   -2.4960   -3.4860 ho        1 MOL      0.410874
    176 H83        -1.4430   -1.2430   -4.0750 ho        1 MOL      0.410874
    177 O24        -0.4050    1.6590   -2.7560 oh        1 MOL     -0.853995
    178 H84         0.3920    1.6120   -3.2990 ho        1 MOL      0.410874
    179 H85        -0.9910    2.2260   -3.2470 ho        1 MOL      0.410874
@<TRIPOS>BOND
     1    1    2 1   
     2    1    4 1   
     3    1    5 1   
     4    1    6 1   
     5    2    3 2   
     6    2    7 1   
     7    7    8 1   
     8    7   15 1   
     9    8    9 1   
    10    8   11 1   
    11    8   16 1   
    12    9   10 2   
    13    9   19 1   
    14   11   12 1   
    15   11   17 1   
    16   11   18 1   
    17   12   13 1   
    18   12   14 1   
    19   19   20 1   
    20   19   28 1   
    21   20   21 1   
    22   20   23 1   
    23   20   29 1   
    24   21   22 2   
    25   21   41 1   
    26   23   24 1   
    27   23   30 1   
    28   23   31 1   
    29   24   25 1   
    30   24   32 1   
    31   24   33 1   
    32   25   26 1   
    33   25   34 1   
    34   25   35 1   
    35   26   27 1   
    36   26   36 1   
    37   26   37 1   
    38   27   38 1   
    39   27   39 1   
    40   27   40 1   
    41   41   42 1   
    42   41   49 1   
    43   42   43 1   
    44   42   45 1   
    45   42   50 1   
    46   43   44 2   
    47   43   53 1   
    48   45   46 1   
    49   45   51 1   
    50   45   52 1   
    51   46   47 1   
    52   46   48 1   
    53   53   54 1   
    54   53   57 1   
    55   54   55 1   
    56   54   58 1   
    57   54   59 1   
    58   55   56 2   
    59   55   60 1   
    60   60   61 1   
    61   60   68 1   
    62   61   62 1   
    63   61   64 1   
    64   61   69 1   
    65   62   63 2   
    66   62   74 1   
    67   64   65 1   
    68   64   70 1   
    69   64   71 1   
    70   65   66 1   
    71   65   67 2   
    72   66   72 1   
    73   66   73 1   
    74   74   75 1   
    75   74   78 1   
    76   75   76 1   
    77   75   79 1   
    78   75   80 1   
    79   76   77 2   
    80   76   81 1   
    81   81   82 1   
    82   81   93 1   
    83   82   83 1   
    84   82   85 1   
    85   82   94 1   
    86   83   84 2   
    87   83  102 1   
    88   85   86 1   
    89   85   95 1   
    90   85   96 1   
    91   86   87 ar  
    92   86   88 ar  
    93   87   89 ar  
    94   87   97 1   
    95   88   90 ar  
    96   88   98 1   
    97   89   91 ar  
    98   89   99 1   
    99   90   91 ar  
   100   90  100 1   
   101   91   92 1   
   102   92  101 1   
   103  102  103 1   
   104  102  110 1   
   105  103  104 1   
   106  103  106 1   
   107  103  111 1   
   108  104  105 2   
   109  104  121 1   
   110  106  107 1   
   111  106  108 1   
   112  106  112 1   
   113  107  109 1   
   114  107  113 1   
   115  107  114 1   
   116  108  115 1   
   117  108  116 1   
   118  108  117 1   
   119  109  118 1   
   120  109  119 1   
   121  109  120 1   
   122  121  122 1   
   123  121  127 1   
   124  122  123 1   
   125  122  125 1   
   126  122  128 1   
   127  123  124 2   
   128  123  132 1   
   129  125  126 1   
   130  125  129 1   
   131  125  130 1   
   132  126  131 1   
   133  132  133 1   
   134  132  137 1   
   135  133  134 1   
   136  133  136 1   
   137  133  138 1   
   138  134  135 2   
   139  134  142 1   
   140  136  139 1   
   141  136  140 1   
   142  136  141 1   
   143  142  143 1   
   144  142  147 1   
   145  143  144 1   
   146  143  146 1   
   147  143  148 1   
   148  144  145 2   
   149  144  152 1   
   150  146  149 1   
   151  146  150 1   
   152  146  151 1   
   153  152  153 1   
   154  152  161 1   
   155  153  154 1   
   156  153  156 1   
   157  153  162 1   
   158  154  155 2   
   159  154  167 1   
   160  156  157 1   
   161  156  163 1   
   162  156  164 1   
   163  157  158 1   
   164  157  165 1   
   165  157  166 1   
   166  158  159 1   
   167  158  160 1   
   168  167  168 1   
   169  167  172 1   
   170  168  169 1   
   171  168  170 1   
   172  168  171 1   
   173  174  175 1   
   174  174  176 1   
   175  177  178 1   
   176  177  179 1   
@<TRIPOS>SUBSTRUCTURE
     1 MOL         1 TEMP              0 ****  ****    0 ROOT
