@<TRIPOS>MOLECULE
MOL
  189   185     1     0     0
SMALL
resp


@<TRIPOS>ATOM
      1 C1          0.3420    1.9350    5.7990 c3        1 MOL     -0.316825
      2 C2         -0.1570    1.8810    4.3330 c         1 MOL      0.861880
      3 O1          0.6500    2.1780    3.4770 o         1 MOL     -0.651054
      4 H1          0.7930    2.9080    5.9930 hc        1 MOL      0.074757
      5 H2         -0.4990    1.7840    6.4760 hc        1 MOL      0.074757
      6 H3          1.0840    1.1530    5.9600 hc        1 MOL      0.074757
      7 N1         -1.4600    1.5740    4.0670 n         1 MOL     -0.798420
      8 C3         -1.9500    1.5200    2.7120 c3        1 MOL      0.000107
      9 C4         -2.6770    2.8280    2.3450 c         1 MOL      0.787434
     10 O2         -3.3340    3.4240    3.1350 o         1 MOL     -0.599395
     11 C5         -2.9660    0.3770    2.4920 c3        1 MOL     -0.148972
     12 C6         -3.8990    0.5040    1.3050 c         1 MOL      0.541165
     13 O3         -5.0850    0.4190    1.6760 o         1 MOL     -0.598587
     14 O4         -3.4780    0.7660    0.1190 o         1 MOL     -0.598587
     15 H4         -2.0850    1.2540    4.8020 hn        1 MOL      0.396565
     16 H5         -1.1000    1.3720    2.0480 h1        1 MOL      0.085004
     17 H6         -3.5420    0.3230    3.4110 hc        1 MOL      0.055910
     18 H7         -2.4230   -0.5650    2.5020 hc        1 MOL      0.055910
     19 N2         -2.4570    3.2360    1.0880 n         1 MOL     -0.565795
     20 C7         -2.7150    4.6200    0.5270 c3        1 MOL      0.173118
     21 C8         -3.7280    4.6650   -0.6190 c         1 MOL      0.366620
     22 O5         -4.2090    5.7520   -1.0070 o         1 MOL     -0.550318
     23 C9         -1.4070    5.3010    0.0170 c3        1 MOL      0.053665
     24 C10        -0.2020    5.2010    1.0410 c3        1 MOL     -0.199802
     25 C11        -0.6820    5.8540    2.3250 c3        1 MOL      0.031276
     26 C12         0.3580    5.9740    3.3980 c3        1 MOL      0.088711
     27 N3         -0.0520    6.9850    4.4400 n4        1 MOL     -0.384450
     28 H8         -2.0610    2.5800    0.4360 hn        1 MOL      0.286384
     29 H9         -3.1870    5.2640    1.2620 h1        1 MOL      0.026301
     30 H10        -1.6720    6.3370   -0.2160 hc        1 MOL      0.020586
     31 H11        -1.1460    4.7820   -0.8970 hc        1 MOL      0.020586
     32 H12         0.6870    5.6990    0.6420 hc        1 MOL      0.067279
     33 H13        -0.0260    4.1330    1.2330 hc        1 MOL      0.067279
     34 H14        -1.5930    5.4060    2.7240 hc        1 MOL      0.005138
     35 H15        -1.0670    6.8110    1.9590 hc        1 MOL      0.005138
     36 H16         1.2480    6.2860    2.8640 hx        1 MOL      0.065653
     37 H17         0.5050    4.9710    3.8140 hx        1 MOL      0.065653
     38 H18        -0.9690    6.8240    4.8470 hn        1 MOL      0.327924
     39 H19         0.6570    7.0040    5.1480 hn        1 MOL      0.327924
     40 H20        -0.1200    7.8660    3.9540 hn        1 MOL      0.327924
     41 N4         -4.1650    3.4830   -1.0920 n         1 MOL     -0.102982
     42 C13        -5.1710    3.3890   -2.1170 c3        1 MOL     -0.090012
     43 C14        -6.5440    2.9160   -1.5920 c         1 MOL      0.456322
     44 O6         -7.4800    2.8880   -2.3510 o         1 MOL     -0.515198
     45 C15        -4.7240    2.5420   -3.2880 c3        1 MOL      0.027377
     46 C16        -3.1960    2.6540   -3.5450 c         1 MOL      0.565615
     47 O7         -2.4130    1.7610   -3.1040 o         1 MOL     -0.618861
     48 O8         -2.7410    3.7100   -4.0960 o         1 MOL     -0.618861
     49 H21        -3.8070    2.6340   -0.6770 hn        1 MOL      0.107971
     50 H22        -5.3160    4.3650   -2.5900 h1        1 MOL      0.125933
     51 H23        -5.2400    2.9600   -4.1530 hc        1 MOL     -0.000347
     52 H24        -5.0410    1.5330   -3.0360 hc        1 MOL     -0.000347
     53 N5         -6.6130    2.4380   -0.3570 n         1 MOL     -0.370636
     54 C17        -7.7820    1.7440    0.0860 c3        1 MOL     -0.088123
     55 C18        -7.8330    0.2890   -0.4550 c         1 MOL      0.441402
     56 O9         -8.9190   -0.3510   -0.2790 o         1 MOL     -0.607230
     57 H25        -5.7420    2.3330    0.1410 hn        1 MOL      0.241979
     58 H26        -8.7410    2.2610   -0.0380 h1        1 MOL      0.112019
     59 H27        -7.6530    1.6360    1.1680 h1        1 MOL      0.112019
     60 N6         -6.8440   -0.3240   -1.0920 n         1 MOL     -0.052099
     61 C19        -6.9460   -1.6400   -1.7910 c3        1 MOL     -0.092548
     62 C20        -6.6360   -2.7600   -0.8600 c         1 MOL      0.399720
     63 O10        -6.5560   -3.8940   -1.3160 o         1 MOL     -0.527672
     64 C21        -6.0770   -1.6450   -3.0610 c3        1 MOL     -0.340545
     65 C22        -4.5390   -1.5250   -2.8580 c         1 MOL      0.884038
     66 O11        -3.9360   -1.8350   -1.7990 o         1 MOL     -0.777264
     67 O12        -3.8190   -0.9990   -3.7080 o         1 MOL     -0.777264
     68 H28        -5.9970    0.1790   -1.3060 hn        1 MOL      0.108942
     69 H29        -7.9160   -1.9150   -2.2090 h1        1 MOL      0.152894
     70 H30        -6.4410   -0.8300   -3.6820 hc        1 MOL      0.110177
     71 H31        -6.3060   -2.5670   -3.5830 hc        1 MOL      0.110177
     72 N7         -6.4530   -2.5470    0.4410 n         1 MOL     -0.165565
     73 C23        -6.3150   -3.6220    1.4320 c3        1 MOL     -0.168275
     74 C24        -5.0240   -4.4120    1.3170 c         1 MOL      0.501620
     75 O13        -4.8640   -5.4510    1.9830 o         1 MOL     -0.557791
     76 H32        -6.4590   -1.5710    0.6870 hn        1 MOL      0.203918
     77 H33        -7.2150   -4.2200    1.2840 h1        1 MOL      0.104610
     78 H34        -6.3130   -3.2300    2.4510 h1        1 MOL      0.104610
     79 N8         -4.0860   -3.9530    0.4450 n         1 MOL     -0.037833
     80 C25        -2.7080   -4.5320    0.5170 c3        1 MOL     -0.395706
     81 C26        -1.6300   -3.4310    0.6270 c         1 MOL      0.883873
     82 O14        -1.8670   -2.3470    0.1110 o         1 MOL     -0.668810
     83 C27        -2.5560   -5.3830   -0.7350 c3        1 MOL      0.350001
     84 C28        -3.3290   -6.7240   -0.5960 c3        1 MOL     -0.358514
     85 O15        -2.9830   -4.6050   -1.8540 oh        1 MOL     -0.577255
     86 H35        -4.2450   -3.0090    0.1340 hn        1 MOL      0.147828
     87 H36        -2.5160   -5.0840    1.4440 h1        1 MOL      0.123804
     88 H37        -1.5010   -5.5390   -0.9610 h1        1 MOL      0.025239
     89 H38        -3.6620   -4.0200   -1.5210 ho        1 MOL      0.354726
     90 H39        -3.1930   -7.3420   -1.4890 hc        1 MOL      0.098395
     91 H40        -2.8090   -7.3360    0.1390 hc        1 MOL      0.098395
     92 H41        -4.3980   -6.5540   -0.4490 hc        1 MOL      0.098395
     93 N9         -0.6150   -3.7500    1.4600 n         1 MOL     -0.748754
     94 C29         0.5680   -2.8690    1.5910 c3        1 MOL      0.027464
     95 C30         1.6730   -3.4100    0.7230 c         1 MOL      0.585230
     96 O16         2.0060   -4.5750    0.7870 o         1 MOL     -0.560573
     97 C31         1.0510   -2.9300    3.1030 c3        1 MOL      0.171602
     98 C32        -0.0100   -2.2300    3.8990 c3        1 MOL      0.217918
     99 C33         2.4460   -2.2830    3.2380 c3        1 MOL     -0.379514
    100 C34        -0.0210   -2.6890    5.3850 c3        1 MOL     -0.147000
    101 H42        -0.5470   -4.6720    1.8630 hn        1 MOL      0.371197
    102 H43         0.3590   -1.8390    1.3020 h1        1 MOL      0.099259
    103 H44         1.1350   -3.9640    3.4360 hc        1 MOL      0.005711
    104 H45        -1.0410   -2.4110    3.5960 hc        1 MOL     -0.030237
    105 H46         0.2370   -1.1740    3.8680 hc        1 MOL     -0.030237
    106 H47         3.1370   -2.9280    2.6800 hc        1 MOL      0.077618
    107 H48         2.5430   -1.3010    2.7760 hc        1 MOL      0.077618
    108 H49         2.8210   -2.4120    4.2490 hc        1 MOL      0.077618
    109 H50        -0.3070   -3.7310    5.4990 hc        1 MOL      0.017022
    110 H51         0.9020   -2.4430    5.9260 hc        1 MOL      0.017022
    111 H52        -0.8330   -2.0860    5.7890 hc        1 MOL      0.017022
    112 N10         2.1810   -2.5090   -0.1580 n         1 MOL     -0.340294
    113 C35         3.4480   -2.7170   -0.9160 c3        1 MOL      0.048680
    114 C36         4.6980   -2.5510   -0.0600 c         1 MOL      0.367400
    115 O17         4.6130   -1.8950    1.0100 o         1 MOL     -0.342561
    116 C37         3.7130   -1.8380   -2.1450 c3        1 MOL      0.087305
    117 C38         2.7080   -1.9070   -3.2630 c3        1 MOL     -0.325337
    118 O18         3.7490   -0.5050   -1.7870 oh        1 MOL     -0.398092
    119 H53         1.7470   -1.5960   -0.1930 hn        1 MOL      0.143306
    120 H54         3.4760   -3.7610   -1.2230 h1        1 MOL      0.092761
    121 H55         4.7040   -1.9540   -2.5720 h1        1 MOL      0.113582
    122 H56         2.8540   -0.3060   -1.5310 ho        1 MOL      0.333281
    123 H57         3.0740   -1.3130   -4.1000 hc        1 MOL      0.098119
    124 H58         2.6730   -2.9320   -3.6240 hc        1 MOL      0.098119
    125 H59         1.6810   -1.6050   -3.0290 hc        1 MOL      0.098119
    126 N11         5.9320   -3.0610   -0.5430 n         1 MOL     -0.348752
    127 C39         7.1870   -2.6840    0.1370 c3        1 MOL     -0.002876
    128 C40         7.5660   -1.2660   -0.1510 c         1 MOL      0.514972
    129 O19         8.3260   -0.6390    0.6170 o         1 MOL     -0.506435
    130 C41         8.3110   -3.6660   -0.2980 c3        1 MOL      0.391665
    131 C42         9.4010   -3.8170    0.7860 c3        1 MOL     -0.337741
    132 O20         7.7640   -4.9530   -0.4920 oh        1 MOL     -0.589322
    133 H60         5.8680   -3.5890   -1.4060 hn        1 MOL      0.227002
    134 H61         7.1370   -2.7650    1.2260 h1        1 MOL      0.139037
    135 H62         8.7940   -3.2210   -1.1690 h1        1 MOL     -0.045625
    136 H63         8.5390   -5.4410   -0.7780 ho        1 MOL      0.377336
    137 H64        10.1790   -3.0770    0.6030 hc        1 MOL      0.087330
    138 H65         8.9660   -3.7300    1.7810 hc        1 MOL      0.087330
    139 H66         9.8740   -4.7950    0.7080 hc        1 MOL      0.087330
    140 N12         7.0330   -0.5780   -1.2220 n         1 MOL     -0.460292
    141 C43         7.0150    0.8660   -1.4070 c3        1 MOL     -0.064926
    142 C44         6.1740    1.6490   -0.3590 c         1 MOL      0.421154
    143 O21         6.4670    2.7770    0.0740 o         1 MOL     -0.527789
    144 C45         6.5360    1.2440   -2.8310 c3        1 MOL      0.101487
    145 C46         6.9300    2.6510   -3.2750 c3        1 MOL     -0.230983
    146 C47         8.4150    2.6860   -3.7200 c3        1 MOL     -0.013978
    147 C48         8.5690    4.0260   -4.3440 c3        1 MOL      0.028087
    148 N13         9.9750    4.2360   -4.9240 n4        1 MOL     -0.149898
    149 H67         6.3580   -1.0660   -1.8050 hn        1 MOL      0.228584
    150 H68         8.0380    1.2170   -1.2570 h1        1 MOL      0.108473
    151 H69         5.4490    1.1460   -2.8050 hc        1 MOL      0.020150
    152 H70         6.8680    0.4300   -3.4660 hc        1 MOL      0.020150
    153 H71         6.8960    3.4760   -2.5710 hc        1 MOL      0.099541
    154 H72         6.2200    2.7250   -4.1040 hc        1 MOL      0.099541
    155 H73         8.5580    1.8990   -4.4600 hc        1 MOL      0.039263
    156 H74         9.1480    2.6660   -2.9210 hc        1 MOL      0.039263
    157 H75         8.4290    4.8370   -3.6320 hx        1 MOL      0.080581
    158 H76         7.8270    4.0560   -5.1400 hx        1 MOL      0.080581
    159 H77        10.1260    5.0320   -5.5160 hn        1 MOL      0.231783
    160 H78        10.7180    4.2400   -4.2500 hn        1 MOL      0.231783
    161 H79        10.2290    3.4240   -5.4670 hn        1 MOL      0.231783
    162 N14         5.0510    1.0620    0.0240 n         1 MOL      0.006360
    163 C49         4.2060    1.5720    1.1700 c3        1 MOL     -0.081987
    164 C50         4.9230    1.2550    2.5290 c         1 MOL      0.459059
    165 O22         5.0180    2.1490    3.3630 o         1 MOL     -0.560899
    166 C51         2.7630    0.9870    1.1020 c3        1 MOL     -0.053437
    167 C52         1.8510    1.7420    0.0380 c3        1 MOL      0.222914
    168 C53         0.5620    0.9960   -0.3570 c         1 MOL      0.606196
    169 O23         0.5740   -0.2500   -0.4840 o         1 MOL     -0.686148
    170 O24        -0.4940    1.5890   -0.5860 o         1 MOL     -0.686148
    171 H80         4.7580    0.2070   -0.4320 hn        1 MOL     -0.144462
    172 H81         4.1000    2.6480    1.0330 h1        1 MOL      0.073914
    173 H82         2.3460    1.0980    2.1060 hc        1 MOL      0.060643
    174 H83         2.7570   -0.0730    0.8610 hc        1 MOL      0.060643
    175 H84         2.4440    1.9740   -0.8480 hc        1 MOL     -0.049875
    176 H85         1.5310    2.7500    0.3380 hc        1 MOL     -0.049875
    177 N15         5.5730    0.0910    2.7690 n         1 MOL     -0.101740
    178 C54         6.5090   -0.1300    3.8840 c3        1 MOL     -0.160406
    179 H86         6.7290    0.8220    4.3680 h1        1 MOL      0.074571
    180 H87         6.0580   -0.8080    4.6090 h1        1 MOL      0.074571
    181 H88         7.4330   -0.5650    3.5030 h1        1 MOL      0.074571
    182 H89         5.4250   -0.6800    2.1290 hn        1 MOL      0.116684
    183 Ca1        -1.8570   -0.3780   -1.7010 Ca        1 MOL      1.723307
    184 O25         0.1280    0.2420   -3.6780 oh        1 MOL     -0.837114
    185 H90        -0.2260    1.0160   -4.1020 ho        1 MOL      0.398587
    186 H91         0.7820   -0.0970   -4.2820 ho        1 MOL      0.398587
    187 O26        -0.9780   -2.6410   -2.8910 oh        1 MOL     -0.837114
    188 H92        -1.5380   -3.4030   -2.7370 ho        1 MOL      0.398587
    189 H93        -0.3810   -2.9310   -3.5900 ho        1 MOL      0.398587
@<TRIPOS>BOND
     1    1    2 1   
     2    1    4 1   
     3    1    5 1   
     4    1    6 1   
     5    2    3 2   
     6    2    7 1   
     7    7    8 1   
     8    7   15 1   
     9    8    9 1   
    10    8   11 1   
    11    8   16 1   
    12    9   10 2   
    13    9   19 1   
    14   11   12 1   
    15   11   17 1   
    16   11   18 1   
    17   12   13 1   
    18   12   14 1   
    19   19   20 1   
    20   19   28 1   
    21   20   21 1   
    22   20   23 1   
    23   20   29 1   
    24   21   22 2   
    25   21   41 1   
    26   23   24 1   
    27   23   30 1   
    28   23   31 1   
    29   24   25 1   
    30   24   32 1   
    31   24   33 1   
    32   25   26 1   
    33   25   34 1   
    34   25   35 1   
    35   26   27 1   
    36   26   36 1   
    37   26   37 1   
    38   27   38 1   
    39   27   39 1   
    40   27   40 1   
    41   41   42 1   
    42   41   49 1   
    43   42   43 1   
    44   42   45 1   
    45   42   50 1   
    46   43   44 2   
    47   43   53 1   
    48   45   46 1   
    49   45   51 1   
    50   45   52 1   
    51   46   47 1   
    52   46   48 1   
    53   53   54 1   
    54   53   57 1   
    55   54   55 1   
    56   54   58 1   
    57   54   59 1   
    58   55   56 2   
    59   55   60 1   
    60   60   61 1   
    61   60   68 1   
    62   61   62 1   
    63   61   64 1   
    64   61   69 1   
    65   62   63 2   
    66   62   72 1   
    67   64   65 1   
    68   64   70 1   
    69   64   71 1   
    70   65   66 1   
    71   65   67 1   
    72   72   73 1   
    73   72   76 1   
    74   73   74 1   
    75   73   77 1   
    76   73   78 1   
    77   74   75 2   
    78   74   79 1   
    79   79   80 1   
    80   79   86 1   
    81   80   81 1   
    82   80   83 1   
    83   80   87 1   
    84   81   82 2   
    85   81   93 1   
    86   83   84 1   
    87   83   85 1   
    88   83   88 1   
    89   84   90 1   
    90   84   91 1   
    91   84   92 1   
    92   85   89 1   
    93   93   94 1   
    94   93  101 1   
    95   94   95 1   
    96   94   97 1   
    97   94  102 1   
    98   95   96 2   
    99   95  112 1   
   100   97   98 1   
   101   97   99 1   
   102   97  103 1   
   103   98  100 1   
   104   98  104 1   
   105   98  105 1   
   106   99  106 1   
   107   99  107 1   
   108   99  108 1   
   109  100  109 1   
   110  100  110 1   
   111  100  111 1   
   112  112  113 1   
   113  112  119 1   
   114  113  114 1   
   115  113  116 1   
   116  113  120 1   
   117  114  115 2   
   118  114  126 1   
   119  116  117 1   
   120  116  118 1   
   121  116  121 1   
   122  117  123 1   
   123  117  124 1   
   124  117  125 1   
   125  118  122 1   
   126  126  127 1   
   127  126  133 1   
   128  127  128 1   
   129  127  130 1   
   130  127  134 1   
   131  128  129 2   
   132  128  140 1   
   133  130  131 1   
   134  130  132 1   
   135  130  135 1   
   136  131  137 1   
   137  131  138 1   
   138  131  139 1   
   139  132  136 1   
   140  140  141 1   
   141  140  149 1   
   142  141  142 1   
   143  141  144 1   
   144  141  150 1   
   145  142  143 2   
   146  142  162 1   
   147  144  145 1   
   148  144  151 1   
   149  144  152 1   
   150  145  146 1   
   151  145  153 1   
   152  145  154 1   
   153  146  147 1   
   154  146  155 1   
   155  146  156 1   
   156  147  148 1   
   157  147  157 1   
   158  147  158 1   
   159  148  159 1   
   160  148  160 1   
   161  148  161 1   
   162  162  163 1   
   163  162  171 1   
   164  163  164 1   
   165  163  166 1   
   166  163  172 1   
   167  164  165 2   
   168  164  177 1   
   169  166  167 1   
   170  166  173 1   
   171  166  174 1   
   172  167  168 1   
   173  167  175 1   
   174  167  176 1   
   175  168  169 1   
   176  168  170 1   
   177  177  178 1   
   178  177  182 1   
   179  178  179 1   
   180  178  180 1   
   181  178  181 1   
   182  184  185 1   
   183  184  186 1   
   184  187  188 1   
   185  187  189 1   
@<TRIPOS>SUBSTRUCTURE
     1 MOL         1 TEMP              0 ****  ****    0 ROOT
