@<TRIPOS>MOLECULE
MOL
  189   185     1     0     0
SMALL
resp


@<TRIPOS>ATOM
      1 C1         -0.7900    5.3520    5.3900 c3        1 MOL     -0.430903
      2 C2         -1.1890    4.6910    4.0750 c         1 MOL      0.737544
      3 O1         -1.4700    3.5030    4.0780 o         1 MOL     -0.607077
      4 H1          0.0370    4.8000    5.8370 hc        1 MOL      0.108289
      5 H2         -0.4790    6.3790    5.2010 hc        1 MOL      0.108289
      6 H3         -1.6400    5.3490    6.0720 hc        1 MOL      0.108289
      7 N1         -1.2980    5.4020    2.9620 n         1 MOL     -0.593560
      8 C3         -1.8010    4.8300    1.7640 c3        1 MOL      0.078590
      9 C4         -1.2520    5.4890    0.4890 c         1 MOL      0.530845
     10 O2         -1.3380    6.7210    0.3260 o         1 MOL     -0.586430
     11 C5         -3.3840    4.8090    1.9510 c3        1 MOL     -0.050067
     12 C6         -4.0560    3.5630    1.3270 c         1 MOL      0.646457
     13 O3         -5.2410    3.2830    1.6280 o         1 MOL     -0.671743
     14 O4         -3.4480    2.9330    0.3990 o         1 MOL     -0.671743
     15 H4         -0.8420    6.3050    2.9040 hn        1 MOL      0.314604
     16 H5         -1.6080    3.7560    1.7410 h1        1 MOL      0.201107
     17 H6         -3.7600    5.6670    1.3850 hc        1 MOL      0.014998
     18 H7         -3.7120    4.9890    2.9640 hc        1 MOL      0.014998
     19 N2         -0.7400    4.6280   -0.4240 n         1 MOL      0.012418
     20 C7         -0.1030    5.0550   -1.6200 c3        1 MOL     -0.005623
     21 C8         -1.0390    4.5850   -2.7880 c         1 MOL      0.462937
     22 O5         -1.4750    5.4700   -3.5350 o         1 MOL     -0.542823
     23 C9          1.3470    4.4940   -1.6280 c3        1 MOL      0.312827
     24 C10         2.3250    5.2810   -0.7530 c3        1 MOL      0.148346
     25 C11         1.8830    4.4870   -3.0850 c3        1 MOL     -0.485569
     26 C12         3.6540    4.6960   -0.2500 c3        1 MOL     -0.070967
     27 H8         -0.6900    3.6360   -0.2130 hn        1 MOL     -0.323929
     28 H9         -0.0840    6.1380   -1.7130 h1        1 MOL      0.037295
     29 H10         1.3370    3.4580   -1.2960 hc        1 MOL     -0.010014
     30 H11         1.7580    5.6180    0.1190 hc        1 MOL     -0.091606
     31 H12         2.5970    6.1520   -1.3380 hc        1 MOL     -0.091606
     32 H13         1.7660    5.5070   -3.4540 hc        1 MOL      0.108152
     33 H14         2.8860    4.0580   -3.1080 hc        1 MOL      0.108152
     34 H15         1.3630    3.7490   -3.6890 hc        1 MOL      0.108152
     35 H16         4.1340    5.5160    0.3070 hc        1 MOL      0.028407
     36 H17         3.4460    3.8750    0.4290 hc        1 MOL      0.028407
     37 H18         4.2010    4.2900   -1.0900 hc        1 MOL      0.028407
     38 N3         -1.5950    3.2880   -2.8560 n         1 MOL     -0.213185
     39 C13        -2.3930    2.7560   -3.9450 c3        1 MOL      0.022445
     40 C14        -3.8880    2.7080   -3.6060 c         1 MOL      0.468809
     41 O6         -4.7660    2.4020   -4.4840 o         1 MOL     -0.574427
     42 C15        -1.8160    1.3650   -4.3880 c3        1 MOL     -0.284334
     43 C16        -1.7530    0.3710   -3.2470 c         1 MOL      0.821183
     44 O7         -2.5780    0.4980   -2.2900 o         1 MOL     -0.723696
     45 O8         -0.8050   -0.4330   -3.1350 o         1 MOL     -0.723696
     46 H19        -1.3680    2.6710   -2.0890 hn        1 MOL      0.123199
     47 H20        -2.4480    3.5100   -4.7280 h1        1 MOL      0.066456
     48 H21        -0.7860    1.4230   -4.7350 hc        1 MOL      0.072565
     49 H22        -2.4400    0.9280   -5.1650 hc        1 MOL      0.072565
     50 N4         -4.2550    2.8290   -2.2930 n         1 MOL     -0.214313
     51 C17        -5.6450    3.0420   -1.8880 c3        1 MOL     -0.280616
     52 C18        -6.4690    1.7610   -1.8370 c         1 MOL      0.538583
     53 O9         -7.6580    1.8270   -1.6350 o         1 MOL     -0.619255
     54 H23        -3.5800    3.0200   -1.5590 hn        1 MOL      0.139365
     55 H24        -6.1710    3.7870   -2.4830 h1        1 MOL      0.145814
     56 H25        -5.6620    3.6150   -0.9570 h1        1 MOL      0.145814
     57 N5         -5.8850    0.6010   -1.9810 n         1 MOL     -0.223037
     58 C19        -6.6240   -0.6160   -2.3870 c3        1 MOL      0.079699
     59 C20        -7.4260   -1.3620   -1.3450 c         1 MOL      0.407642
     60 O10        -8.3100   -2.1950   -1.6300 o         1 MOL     -0.558457
     61 C21        -5.6620   -1.6500   -2.9750 c3        1 MOL     -0.124988
     62 C22        -4.4270   -1.9720   -2.1440 c         1 MOL      0.686871
     63 O11        -4.2860   -1.5040   -0.9810 o         1 MOL     -0.660999
     64 O12        -3.5920   -2.8060   -2.6030 o         1 MOL     -0.660999
     65 H26        -4.8950    0.6520   -2.1940 hn        1 MOL      0.197098
     66 H27        -7.2520   -0.4310   -3.2490 h1        1 MOL      0.063132
     67 H28        -5.2730   -1.2280   -3.9040 hc        1 MOL      0.030094
     68 H29        -6.2610   -2.5260   -3.2010 hc        1 MOL      0.030094
     69 N6         -7.1580   -1.0370   -0.0540 n         1 MOL     -0.239690
     70 C23        -7.6110   -1.8920    1.0520 c3        1 MOL     -0.008467
     71 C24        -6.6190   -3.0300    1.5680 c         1 MOL      0.347583
     72 O13        -6.9640   -3.8800    2.3820 o         1 MOL     -0.573479
     73 H30        -6.5320   -0.2650    0.1140 hn        1 MOL      0.226598
     74 H31        -8.5240   -2.3620    0.6640 h1        1 MOL      0.049373
     75 H32        -8.0170   -1.2690    1.8410 h1        1 MOL      0.049373
     76 N7         -5.4080   -2.9960    1.0640 n         1 MOL      0.036134
     77 C25        -4.2470   -3.7530    1.4540 c3        1 MOL     -0.029184
     78 C26        -3.0510   -2.8790    1.8990 c         1 MOL      0.471342
     79 O14        -3.0450   -1.6700    1.7430 o         1 MOL     -0.522041
     80 C27        -3.8440   -4.7900    0.4380 c3        1 MOL      0.088239
     81 C28        -4.9890   -5.6960    0.0190 c3        1 MOL     -0.345938
     82 C29        -4.5690   -6.8690   -0.8950 c         1 MOL      0.747529
     83 N8         -5.4850   -7.4030   -1.7200 n         1 MOL     -0.850941
     84 O15        -3.4680   -7.3520   -0.9240 o         1 MOL     -0.567747
     85 H33        -5.1740   -2.2580    0.4160 hn        1 MOL      0.041986
     86 H34        -4.5460   -4.3000    2.3450 h1        1 MOL      0.030052
     87 H35        -2.9920   -5.3560    0.8000 hc        1 MOL      0.022536
     88 H36        -3.4860   -4.2120   -0.4070 hc        1 MOL      0.022536
     89 H37        -5.8140   -5.1290   -0.4090 hc        1 MOL      0.095974
     90 H38        -5.4090   -6.1150    0.9250 hc        1 MOL      0.095974
     91 H39        -6.3670   -6.9460   -1.8850 hn        1 MOL      0.356703
     92 H40        -5.2450   -8.2340   -2.2470 hn        1 MOL      0.356703
     93 N9         -1.9040   -3.5350    2.3000 n         1 MOL     -0.516875
     94 C30        -0.6080   -2.8630    2.6980 c3        1 MOL      0.045213
     95 C31         0.5690   -3.2830    1.7280 c         1 MOL      0.555241
     96 O16         0.9790   -4.4520    1.7800 o         1 MOL     -0.593259
     97 C32        -0.4170   -3.1080    4.1660 c3        1 MOL      0.197613
     98 C33         0.9430   -2.4940    4.5650 c3        1 MOL     -0.273857
     99 C34        -1.6140   -2.5350    5.0060 c3        1 MOL     -0.273857
    100 H41        -1.8690   -4.5490    2.2560 hn        1 MOL      0.313491
    101 H42        -0.7040   -1.7840    2.5450 h1        1 MOL      0.061954
    102 H43        -0.3140   -4.1820    4.3430 hc        1 MOL     -0.022203
    103 H44         0.9490   -1.4020    4.5820 hc        1 MOL      0.061948
    104 H45         1.1990   -2.7800    5.5900 hc        1 MOL      0.061948
    105 H46         1.7180   -2.8690    3.8980 hc        1 MOL      0.061948
    106 H47        -1.3650   -2.6860    6.0550 hc        1 MOL      0.061948
    107 H48        -1.7780   -1.4840    4.7950 hc        1 MOL      0.061948
    108 H49        -2.5150   -3.1110    4.7860 hc        1 MOL      0.061948
    109 N10         0.9990   -2.4060    0.8140 n         1 MOL     -0.121851
    110 C35         2.1790   -2.6290   -0.0600 c3        1 MOL      0.020181
    111 C36         3.4080   -2.5360    0.8720 c         1 MOL      0.132676
    112 O17         3.5290   -1.6960    1.7940 o         1 MOL     -0.186919
    113 C37         2.1960   -1.5650   -1.1780 c3        1 MOL     -0.273838
    114 C38         3.2590   -1.7000   -2.2290 c         1 MOL      0.653022
    115 N11         3.3050   -2.8570   -2.8930 n         1 MOL     -0.748192
    116 O18         4.0910   -0.8340   -2.3630 o         1 MOL     -0.514528
    117 H50         0.4040   -1.5920    0.7440 hn        1 MOL     -0.027009
    118 H51         2.1520   -3.6560   -0.4210 h1        1 MOL      0.074044
    119 H52         2.3600   -0.5960   -0.6910 hc        1 MOL      0.169462
    120 H53         1.2260   -1.5070   -1.6650 hc        1 MOL      0.169462
    121 H54         2.5150   -3.4760   -2.7480 hn        1 MOL      0.338051
    122 H55         4.0520   -3.0310   -3.5380 hn        1 MOL      0.338051
    123 N12         4.5200   -3.2410    0.5150 n         1 MOL     -0.155949
    124 C39         5.8240   -3.0560    1.1310 c3        1 MOL     -0.026802
    125 C40         6.4120   -1.6050    1.1830 c         1 MOL      0.322575
    126 O19         7.2100   -1.3280    2.1200 o         1 MOL     -0.569860
    127 C41         6.9330   -3.8920    0.3110 c3        1 MOL     -0.224395
    128 C42         7.2910   -3.3720   -1.1500 ca        1 MOL     -0.003671
    129 C43         6.5660   -3.8090   -2.2470 ca        1 MOL     -0.129829
    130 C44         8.4140   -2.5490   -1.2840 ca        1 MOL     -0.129829
    131 C45         6.9660   -3.4290   -3.5080 ca        1 MOL     -0.313288
    132 C46         8.7920   -2.2120   -2.6030 ca        1 MOL     -0.313288
    133 C47         8.0440   -2.5740   -3.7080 ca        1 MOL      0.435051
    134 O20         8.4040   -2.1450   -4.9530 oh        1 MOL     -0.594755
    135 H56         4.3980   -3.8640   -0.2750 hn        1 MOL      0.171091
    136 H57         5.7850   -3.3150    2.1900 h1        1 MOL      0.076029
    137 H58         6.5890   -4.9240    0.2770 hc        1 MOL      0.089576
    138 H59         7.8490   -3.9590    0.8980 hc        1 MOL      0.089576
    139 H60         5.6550   -4.3780   -2.1890 ha        1 MOL      0.139787
    140 H61         8.9180   -2.1510   -0.4120 ha        1 MOL      0.139787
    141 H62         6.4120   -3.7290   -4.3780 ha        1 MOL      0.151251
    142 H63         9.7370   -1.7030   -2.7290 ha        1 MOL      0.151251
    143 H64         9.0050   -1.4030   -4.9530 ho        1 MOL      0.427688
    144 N13         5.9890   -0.7270    0.3070 n         1 MOL      0.306045
    145 C48         6.3730    0.6570    0.3280 c3        1 MOL     -0.360683
    146 C49         5.4100    1.4640    1.2410 c         1 MOL      0.605843
    147 O21         5.6780    2.6280    1.4100 o         1 MOL     -0.541121
    148 C50         6.1540    1.1770   -1.0800 c3        1 MOL      0.246382
    149 C51         7.2600    0.8780   -2.0830 c3        1 MOL     -0.214371
    150 C52         8.5460    1.5820   -1.8580 c         1 MOL      0.772808
    151 O22         8.5380    2.6980   -1.2140 o         1 MOL     -0.753180
    152 O23         9.5640    1.1990   -2.4340 o         1 MOL     -0.753180
    153 H65         5.4090   -1.0300   -0.4640 hn        1 MOL      0.078018
    154 H66         7.4170    0.7760    0.6140 h1        1 MOL      0.133053
    155 H67         6.0580    2.2700   -1.0420 hc        1 MOL     -0.038929
    156 H68         5.1870    0.8280   -1.4490 hc        1 MOL     -0.038929
    157 H69         6.8730    1.2480   -3.0250 hc        1 MOL      0.019725
    158 H70         7.4050   -0.2040   -2.0820 hc        1 MOL      0.019725
    159 N14         4.3430    0.8890    1.7950 n         1 MOL     -0.464738
    160 C53         3.4790    1.6340    2.6900 c3        1 MOL     -0.015577
    161 C54         3.8140    1.1200    4.1420 c         1 MOL      0.570137
    162 O24         3.7760    1.9600    5.0620 o         1 MOL     -0.608654
    163 C55         2.0120    1.2290    2.4100 c3        1 MOL     -0.026527
    164 C56         1.5160    1.7990    1.0650 c3        1 MOL     -0.044140
    165 C57         0.1790    1.1680    0.5370 c         1 MOL      0.523121
    166 O25        -0.4810    1.6940   -0.4230 o         1 MOL     -0.507446
    167 O26        -0.2610    0.1250    1.0100 o         1 MOL     -0.507446
    168 H71         4.1040   -0.0490    1.5140 hn        1 MOL      0.120262
    169 H72         3.6700    2.7030    2.7010 h1        1 MOL      0.088435
    170 H73         1.4180    1.5540    3.2530 hc        1 MOL      0.025209
    171 H74         1.9480    0.1360    2.3530 hc        1 MOL      0.025209
    172 H75         2.3040    1.7280    0.3200 hc        1 MOL      0.001532
    173 H76         1.2800    2.8670    1.0370 hc        1 MOL      0.001532
    174 N15         4.1030   -0.1170    4.2810 n         1 MOL     -0.178815
    175 C58         4.3260   -0.7310    5.5810 c3        1 MOL     -0.185299
    176 H77         5.0440   -1.5440    5.4790 h1        1 MOL      0.075007
    177 H78         4.7170    0.0140    6.2720 h1        1 MOL      0.075007
    178 H79         3.3840   -1.1240    5.9640 h1        1 MOL      0.075007
    179 H80         4.0710   -0.7850    3.5210 hn        1 MOL      0.150548
    180 Ca1        -2.6520    0.3680    0.1810 Ca        1 MOL      1.710651
    181 O27        -2.5880    1.2000    2.7810 oh        1 MOL     -0.850645
    182 H81        -3.2180    0.8240    3.3960 ho        1 MOL      0.397256
    183 H82        -2.1170    1.8530    3.3070 ho        1 MOL      0.397256
    184 O28        -5.0520    0.6280    1.5230 oh        1 MOL     -0.850645
    185 H83        -5.1450    0.2680    2.4050 ho        1 MOL      0.397256
    186 H84        -5.2130    1.5620    1.6360 ho        1 MOL      0.397256
    187 O29        -1.5120   -1.8100   -0.8150 oh        1 MOL     -0.850645
    188 H85        -1.0010   -1.3550   -1.4910 ho        1 MOL      0.397256
    189 H86        -2.3090   -2.0840   -1.2600 ho        1 MOL      0.397256
@<TRIPOS>BOND
     1    1    2 1   
     2    1    4 1   
     3    1    5 1   
     4    1    6 1   
     5    2    3 2   
     6    2    7 1   
     7    7    8 1   
     8    7   15 1   
     9    8    9 1   
    10    8   11 1   
    11    8   16 1   
    12    9   10 2   
    13    9   19 1   
    14   11   12 1   
    15   11   17 1   
    16   11   18 1   
    17   12   13 1   
    18   12   14 1   
    19   19   20 1   
    20   19   27 1   
    21   20   21 1   
    22   20   23 1   
    23   20   28 1   
    24   21   22 2   
    25   21   38 1   
    26   23   24 1   
    27   23   25 1   
    28   23   29 1   
    29   24   26 1   
    30   24   30 1   
    31   24   31 1   
    32   25   32 1   
    33   25   33 1   
    34   25   34 1   
    35   26   35 1   
    36   26   36 1   
    37   26   37 1   
    38   38   39 1   
    39   38   46 1   
    40   39   40 1   
    41   39   42 1   
    42   39   47 1   
    43   40   41 2   
    44   40   50 1   
    45   42   43 1   
    46   42   48 1   
    47   42   49 1   
    48   43   44 1   
    49   43   45 1   
    50   50   51 1   
    51   50   54 1   
    52   51   52 1   
    53   51   55 1   
    54   51   56 1   
    55   52   53 2   
    56   52   57 1   
    57   57   58 1   
    58   57   65 1   
    59   58   59 1   
    60   58   61 1   
    61   58   66 1   
    62   59   60 2   
    63   59   69 1   
    64   61   62 1   
    65   61   67 1   
    66   61   68 1   
    67   62   63 1   
    68   62   64 1   
    69   69   70 1   
    70   69   73 1   
    71   70   71 1   
    72   70   74 1   
    73   70   75 1   
    74   71   72 2   
    75   71   76 1   
    76   76   77 1   
    77   76   85 1   
    78   77   78 1   
    79   77   80 1   
    80   77   86 1   
    81   78   79 2   
    82   78   93 1   
    83   80   81 1   
    84   80   87 1   
    85   80   88 1   
    86   81   82 1   
    87   81   89 1   
    88   81   90 1   
    89   82   83 1   
    90   82   84 2   
    91   83   91 1   
    92   83   92 1   
    93   93   94 1   
    94   93  100 1   
    95   94   95 1   
    96   94   97 1   
    97   94  101 1   
    98   95   96 2   
    99   95  109 1   
   100   97   98 1   
   101   97   99 1   
   102   97  102 1   
   103   98  103 1   
   104   98  104 1   
   105   98  105 1   
   106   99  106 1   
   107   99  107 1   
   108   99  108 1   
   109  109  110 1   
   110  109  117 1   
   111  110  111 1   
   112  110  113 1   
   113  110  118 1   
   114  111  112 2   
   115  111  123 1   
   116  113  114 1   
   117  113  119 1   
   118  113  120 1   
   119  114  115 1   
   120  114  116 2   
   121  115  121 1   
   122  115  122 1   
   123  123  124 1   
   124  123  135 1   
   125  124  125 1   
   126  124  127 1   
   127  124  136 1   
   128  125  126 2   
   129  125  144 1   
   130  127  128 1   
   131  127  137 1   
   132  127  138 1   
   133  128  129 ar  
   134  128  130 ar  
   135  129  131 ar  
   136  129  139 1   
   137  130  132 ar  
   138  130  140 1   
   139  131  133 ar  
   140  131  141 1   
   141  132  133 ar  
   142  132  142 1   
   143  133  134 1   
   144  134  143 1   
   145  144  145 1   
   146  144  153 1   
   147  145  146 1   
   148  145  148 1   
   149  145  154 1   
   150  146  147 2   
   151  146  159 1   
   152  148  149 1   
   153  148  155 1   
   154  148  156 1   
   155  149  150 1   
   156  149  157 1   
   157  149  158 1   
   158  150  151 1   
   159  150  152 1   
   160  159  160 1   
   161  159  168 1   
   162  160  161 1   
   163  160  163 1   
   164  160  169 1   
   165  161  162 2   
   166  161  174 1   
   167  163  164 1   
   168  163  170 1   
   169  163  171 1   
   170  164  165 1   
   171  164  172 1   
   172  164  173 1   
   173  165  166 1   
   174  165  167 1   
   175  174  175 1   
   176  174  179 1   
   177  175  176 1   
   178  175  177 1   
   179  175  178 1   
   180  181  182 1   
   181  181  183 1   
   182  184  185 1   
   183  184  186 1   
   184  187  188 1   
   185  187  189 1   
@<TRIPOS>SUBSTRUCTURE
     1 MOL         1 TEMP              0 ****  ****    0 ROOT
