@<TRIPOS>MOLECULE
MOL
  189   185     1     0     0
SMALL
resp


@<TRIPOS>ATOM
      1 C1          0.2090   -4.2020    5.7620 c3        1 MOL     -0.426290
      2 C2          0.7820   -3.6280    4.4350 c         1 MOL      0.739912
      3 O1          0.7980   -2.4150    4.2230 o         1 MOL     -0.613246
      4 H1         -0.8270   -3.8820    5.8790 hc        1 MOL      0.102038
      5 H2          0.2510   -5.2910    5.7360 hc        1 MOL      0.102038
      6 H3          0.7980   -3.8350    6.6020 hc        1 MOL      0.102038
      7 N1          1.1870   -4.4700    3.5440 n         1 MOL     -0.570780
      8 C3          1.8440   -4.1120    2.3080 c3        1 MOL      0.265820
      9 C4          1.5450   -5.1740    1.3040 c         1 MOL      0.443025
     10 O2          1.7070   -6.2880    1.6150 o         1 MOL     -0.561407
     11 C5          3.3590   -3.9120    2.5120 c3        1 MOL     -0.461195
     12 C6          3.9900   -3.3010    1.2130 c         1 MOL      0.904392
     13 O3          5.2480   -3.2390    1.1280 o         1 MOL     -0.743376
     14 O4          3.2610   -2.9570    0.2540 o         1 MOL     -0.743376
     15 H4          1.0500   -5.4440    3.7580 hn        1 MOL      0.297592
     16 H5          1.3980   -3.1480    2.0760 h1        1 MOL     -0.001450
     17 H6          3.7200   -4.9310    2.6080 hc        1 MOL      0.108433
     18 H7          3.6020   -3.3250    3.3960 hc        1 MOL      0.108433
     19 N2          1.1930   -4.8050    0.0520 n         1 MOL     -0.155627
     20 C7          0.9700   -5.6360   -1.1040 c3        1 MOL     -0.340620
     21 C8          1.6770   -5.0700   -2.3550 c         1 MOL      0.594754
     22 O5          1.2870   -5.4570   -3.5000 o         1 MOL     -0.593152
     23 C9         -0.5610   -5.9780   -1.2290 c3        1 MOL      0.343489
     24 C10        -1.4740   -4.7530   -1.4320 c3        1 MOL     -0.159332
     25 C11        -1.0270   -6.9560   -0.0630 c3        1 MOL     -0.174864
     26 C12        -2.9740   -5.0460   -1.5500 c3        1 MOL     -0.048077
     27 H8          0.9890   -3.8160   -0.0810 hn        1 MOL      0.303386
     28 H9          1.4580   -6.5600   -0.8260 h1        1 MOL      0.126384
     29 H10        -0.6300   -6.6280   -2.0920 hc        1 MOL     -0.061161
     30 H11        -1.1030   -4.1580   -2.2650 hc        1 MOL      0.071158
     31 H12        -1.3590   -4.2080   -0.4880 hc        1 MOL      0.071158
     32 H13        -1.9450   -7.4970   -0.3190 hc        1 MOL      0.025666
     33 H14        -0.3570   -7.8030    0.0540 hc        1 MOL      0.025666
     34 H15        -1.1900   -6.3900    0.8530 hc        1 MOL      0.025666
     35 H16        -3.3790   -5.4490   -0.6230 hc        1 MOL      0.003929
     36 H17        -3.5750   -4.1980   -1.8740 hc        1 MOL      0.003929
     37 H18        -3.1440   -5.8240   -2.3020 hc        1 MOL      0.003929
     38 N3          2.6770   -4.1860   -2.3320 n         1 MOL     -0.433325
     39 C13         3.4610   -3.6250   -3.5260 c3        1 MOL     -0.021963
     40 C14         4.8690   -3.1720   -3.3040 c         1 MOL      0.398487
     41 O6          5.7000   -3.0340   -4.1800 o         1 MOL     -0.549662
     42 C15         2.6280   -2.4520   -4.1810 c3        1 MOL     -0.163388
     43 C16         2.2350   -1.3100   -3.2790 c         1 MOL      0.795854
     44 O7          2.8500   -1.2260   -2.2260 o         1 MOL     -0.728714
     45 O8          1.3440   -0.4990   -3.6480 o         1 MOL     -0.728714
     46 H19         2.8620   -3.7810   -1.4150 hn        1 MOL      0.271298
     47 H20         3.4650   -4.4340   -4.2500 h1        1 MOL      0.106352
     48 H21         1.7030   -2.8690   -4.5660 hc        1 MOL      0.051309
     49 H22         3.0930   -2.0400   -5.0730 hc        1 MOL      0.051309
     50 N4          5.2600   -2.8870   -2.0520 n         1 MOL     -0.099290
     51 C17         6.6300   -2.5460   -1.6340 c3        1 MOL     -0.234429
     52 C18         7.1110   -1.1130   -1.8190 c         1 MOL      0.673308
     53 O9          8.2980   -0.9500   -1.8860 o         1 MOL     -0.651347
     54 H23         4.5630   -3.0340   -1.3360 hn        1 MOL      0.131996
     55 H24         7.4130   -3.1220   -2.1180 h1        1 MOL      0.097644
     56 H25         6.7710   -2.5560   -0.5480 h1        1 MOL      0.097644
     57 N5          6.2620   -0.1120   -1.8460 n         1 MOL     -0.268426
     58 C19         6.6330    1.2820   -2.2570 c3        1 MOL     -0.167999
     59 C20         7.2670    2.0960   -1.1920 c         1 MOL      0.520050
     60 O10         7.5710    3.2740   -1.3740 o         1 MOL     -0.535764
     61 C21         5.4830    1.9590   -2.9230 c3        1 MOL     -0.125333
     62 C22         4.1570    1.9240   -2.1450 c         1 MOL      0.777854
     63 O11         4.0140    1.3500   -1.0330 o         1 MOL     -0.704917
     64 O12         3.1960    2.3980   -2.7880 o         1 MOL     -0.704917
     65 H26         5.3070   -0.2320   -1.5610 hn        1 MOL      0.165304
     66 H27         7.4790    1.1140   -2.9200 h1        1 MOL      0.122789
     67 H28         5.2960    1.5030   -3.8920 hc        1 MOL      0.057346
     68 H29         5.7550    2.9790   -3.2090 hc        1 MOL      0.057346
     69 N6          7.2600    1.5860    0.0950 n         1 MOL     -0.366797
     70 C23         7.4860    2.4020    1.3000 c3        1 MOL     -0.027060
     71 C24         6.3300    3.4090    1.5990 c         1 MOL      0.377531
     72 O13         6.5310    4.5120    2.1590 o         1 MOL     -0.577442
     73 H30         7.0080    0.6120    0.2240 hn        1 MOL      0.253490
     74 H31         8.4130    2.9580    1.1610 h1        1 MOL      0.065755
     75 H32         7.7040    1.7180    2.1190 h1        1 MOL      0.065755
     76 N7          5.1360    3.1000    1.1500 n         1 MOL     -0.093088
     77 C25         3.9830    3.9690    1.3230 c3        1 MOL      0.003329
     78 C26         2.6620    3.1950    1.6290 c         1 MOL      0.332895
     79 O14         2.7050    2.0300    1.4380 o         1 MOL     -0.502102
     80 C27         3.7800    4.8900    0.1610 c3        1 MOL      0.070317
     81 C28         4.6790    6.0960    0.2390 c3        1 MOL     -0.269913
     82 C29         4.3410    7.1850   -0.7450 c         1 MOL      0.652874
     83 N8          4.7130    7.0440   -1.9900 n         1 MOL     -0.818925
     84 O15         3.6660    8.1260   -0.3940 o         1 MOL     -0.594912
     85 H33         4.9800    2.2320    0.6740 hn        1 MOL      0.120035
     86 H34         4.1400    4.5390    2.2340 h1        1 MOL      0.045393
     87 H35         2.7080    5.1100    0.1260 hc        1 MOL      0.024646
     88 H36         4.0120    4.3530   -0.7590 hc        1 MOL      0.024646
     89 H37         5.6500    5.6740   -0.0580 hc        1 MOL      0.096795
     90 H38         4.6380    6.5220    1.2440 hc        1 MOL      0.096795
     91 H39         5.2830    6.2580   -2.2470 hn        1 MOL      0.374788
     92 H40         4.1370    7.6040   -2.6120 hn        1 MOL      0.374788
     93 N9          1.5830    3.7690    2.0880 n         1 MOL     -0.253398
     94 C30         0.3180    3.1080    2.3830 c3        1 MOL      0.136467
     95 C31        -0.7660    3.5010    1.3390 c         1 MOL      0.413256
     96 O16        -1.0800    4.6810    1.1660 o         1 MOL     -0.575696
     97 C32        -0.2810    3.4770    3.7360 c3        1 MOL      0.326316
     98 C33        -1.4010    2.5290    4.0300 c3        1 MOL     -0.305675
     99 C34         0.7690    3.3210    4.8760 c3        1 MOL     -0.305675
    100 H41         1.5380    4.7840    2.0900 hn        1 MOL      0.203754
    101 H42         0.4960    2.0400    2.3260 h1        1 MOL      0.053416
    102 H43        -0.6150    4.5170    3.7040 hc        1 MOL     -0.057616
    103 H44        -2.3420    2.6990    3.5060 hc        1 MOL      0.053956
    104 H45        -1.0470    1.5200    3.8270 hc        1 MOL      0.053956
    105 H46        -1.5850    2.5460    5.1060 hc        1 MOL      0.053956
    106 H47         1.2390    2.3430    4.7630 hc        1 MOL      0.053956
    107 H48         1.5420    4.0550    4.6900 hc        1 MOL      0.053956
    108 H49         0.2970    3.5470    5.8300 hc        1 MOL      0.053956
    109 N10        -1.3200    2.4940    0.7090 n         1 MOL     -0.267922
    110 C35        -2.5490    2.6870   -0.1230 c3        1 MOL      0.365480
    111 C36        -3.8450    2.3910    0.6910 c         1 MOL     -0.034559
    112 O17        -3.7770    1.9810    1.8820 o         1 MOL     -0.224624
    113 C37        -2.4300    1.7370   -1.3360 c3        1 MOL     -0.569737
    114 C38        -3.6920    1.7280   -2.1650 c         1 MOL      0.820470
    115 N11        -4.1420    2.8650   -2.7000 n         1 MOL     -0.812953
    116 O18        -4.3560    0.7330   -2.3440 o         1 MOL     -0.590199
    117 H50        -0.9660    1.5510    0.7900 hn        1 MOL      0.139954
    118 H51        -2.5280    3.7130   -0.4990 h1        1 MOL      0.024319
    119 H52        -2.2340    0.7460   -0.9180 hc        1 MOL      0.196436
    120 H53        -1.6310    2.0910   -1.9890 hc        1 MOL      0.196436
    121 H54        -3.6470    3.7060   -2.4760 hn        1 MOL      0.359169
    122 H55        -4.9820    2.7160   -3.2420 hn        1 MOL      0.359169
    123 N12        -5.0190    2.6590    0.1570 n         1 MOL     -0.005632
    124 C39        -6.2410    2.3590    0.9000 c3        1 MOL      0.142806
    125 C40        -6.6130    0.8980    0.9440 c         1 MOL      0.334187
    126 O19        -7.2750    0.4440    1.8680 o         1 MOL     -0.569067
    127 C41        -7.3920    3.1230    0.2830 c3        1 MOL     -0.322757
    128 C42        -7.5470    2.9880   -1.2350 ca        1 MOL      0.090745
    129 C43        -7.0680    4.1160   -1.9790 ca        1 MOL     -0.201593
    130 C44        -8.0730    1.8480   -1.8530 ca        1 MOL     -0.201593
    131 C45        -7.4130    4.1600   -3.3670 ca        1 MOL     -0.200234
    132 C46        -8.3600    1.9360   -3.2090 ca        1 MOL     -0.200234
    133 C47        -8.0400    3.0340   -3.9720 ca        1 MOL      0.363972
    134 O20        -8.3010    3.0380   -5.3240 oh        1 MOL     -0.617958
    135 H56        -5.0270    3.1660   -0.7130 hn        1 MOL      0.059422
    136 H57        -6.1550    2.6850    1.9420 h1        1 MOL      0.061377
    137 H58        -7.1730    4.1640    0.5070 hc        1 MOL      0.093877
    138 H59        -8.3190    2.7610    0.7200 hc        1 MOL      0.093877
    139 H60        -6.7640    4.9990   -1.4530 ha        1 MOL      0.150276
    140 H61        -8.4580    1.0280   -1.2590 ha        1 MOL      0.150276
    141 H62        -7.3130    5.0950   -3.8870 ha        1 MOL      0.104022
    142 H63        -8.7380    1.0550   -3.7010 ha        1 MOL      0.104022
    143 H64        -8.6440    2.2140   -5.6750 ho        1 MOL      0.444628
    144 N13        -6.1590   -0.0090   -0.0090 n         1 MOL      0.374149
    145 C48        -6.1950   -1.4490    0.0580 c3        1 MOL     -0.560827
    146 C49        -5.3790   -2.0670    1.1930 c         1 MOL      0.656869
    147 O21        -5.5220   -3.2240    1.5190 o         1 MOL     -0.545838
    148 C50        -5.9050   -2.0470   -1.3600 c3        1 MOL      0.248139
    149 C51        -6.8270   -1.5180   -2.4800 c3        1 MOL     -0.262582
    150 C52        -8.2970   -1.7890   -2.3230 c         1 MOL      0.750555
    151 O22        -9.0210   -1.1950   -3.1090 o         1 MOL     -0.726031
    152 O23        -8.7440   -2.4920   -1.3990 o         1 MOL     -0.726031
    153 H65        -5.7190    0.3650   -0.8440 hn        1 MOL      0.083019
    154 H66        -7.2230   -1.7090    0.3210 h1        1 MOL      0.170737
    155 H67        -5.9380   -3.1390   -1.3950 hc        1 MOL     -0.012240
    156 H68        -4.8590   -1.8200   -1.5640 hc        1 MOL     -0.012240
    157 H69        -6.5630   -1.9770   -3.4240 hc        1 MOL      0.034601
    158 H70        -6.6470   -0.4450   -2.4390 hc        1 MOL      0.034601
    159 N14        -4.4510   -1.1890    1.6930 n         1 MOL     -0.351262
    160 C53        -3.5780   -1.5490    2.8030 c3        1 MOL     -0.001825
    161 C54        -3.9050   -0.8330    4.1330 c         1 MOL      0.472720
    162 O24        -3.8520   -1.5140    5.1530 o         1 MOL     -0.574007
    163 C55        -2.1580   -1.2020    2.3840 c3        1 MOL      0.090379
    164 C56        -1.6560   -2.0030    1.1580 c3        1 MOL      0.081491
    165 C57        -0.2610   -1.4340    0.7530 c         1 MOL      0.804224
    166 O25         0.4100   -2.0590   -0.0450 o         1 MOL     -0.811323
    167 O26         0.2330   -0.3600    1.2020 o         1 MOL     -0.811323
    168 H71        -4.3670   -0.3010    1.2220 hn        1 MOL      0.058413
    169 H72        -3.5920   -2.6300    2.9580 h1        1 MOL      0.059139
    170 H73        -1.4610   -1.4210    3.1980 hc        1 MOL     -0.000545
    171 H74        -2.0870   -0.1520    2.1250 hc        1 MOL     -0.000545
    172 H75        -2.3250   -1.8540    0.3210 hc        1 MOL     -0.044414
    173 H76        -1.5450   -3.0380    1.4810 hc        1 MOL     -0.044414
    174 N15        -4.3110    0.4120    4.0930 n         1 MOL     -0.098325
    175 C58        -4.6700    1.1200    5.3800 c3        1 MOL     -0.252073
    176 H77        -4.8740    2.1710    5.1720 h1        1 MOL      0.092433
    177 H78        -5.5570    0.6580    5.8140 h1        1 MOL      0.092433
    178 H79        -3.8390    1.0450    6.0810 h1        1 MOL      0.092433
    179 H80        -4.1950    0.9830    3.2700 hn        1 MOL      0.065725
    180 Ca1         2.5520   -0.3600    0.1460 Ca        1 MOL      1.809528
    181 O27         2.9730   -0.6170    2.7390 oh        1 MOL     -0.883092
    182 H81         2.1410   -0.8150    3.1690 ho        1 MOL      0.418769
    183 H82         3.4760   -0.1640    3.4160 ho        1 MOL      0.418769
    184 O28         5.3880   -0.6500    1.0600 oh        1 MOL     -0.883092
    185 H83         5.6950   -0.4430    1.9390 ho        1 MOL      0.418769
    186 H84         5.4830   -1.5940    0.9780 ho        1 MOL      0.418769
    187 O29         1.0410    1.2570   -1.4970 oh        1 MOL     -0.883092
    188 H85         0.9810    0.5740   -2.1690 ho        1 MOL      0.418769
    189 H86         1.7470    1.8240   -1.8040 ho        1 MOL      0.418769
@<TRIPOS>BOND
     1    1    2 1   
     2    1    4 1   
     3    1    5 1   
     4    1    6 1   
     5    2    3 2   
     6    2    7 1   
     7    7    8 1   
     8    7   15 1   
     9    8    9 1   
    10    8   11 1   
    11    8   16 1   
    12    9   10 2   
    13    9   19 1   
    14   11   12 1   
    15   11   17 1   
    16   11   18 1   
    17   12   13 1   
    18   12   14 1   
    19   19   20 1   
    20   19   27 1   
    21   20   21 1   
    22   20   23 1   
    23   20   28 1   
    24   21   22 2   
    25   21   38 1   
    26   23   24 1   
    27   23   25 1   
    28   23   29 1   
    29   24   26 1   
    30   24   30 1   
    31   24   31 1   
    32   25   32 1   
    33   25   33 1   
    34   25   34 1   
    35   26   35 1   
    36   26   36 1   
    37   26   37 1   
    38   38   39 1   
    39   38   46 1   
    40   39   40 1   
    41   39   42 1   
    42   39   47 1   
    43   40   41 2   
    44   40   50 1   
    45   42   43 1   
    46   42   48 1   
    47   42   49 1   
    48   43   44 1   
    49   43   45 1   
    50   50   51 1   
    51   50   54 1   
    52   51   52 1   
    53   51   55 1   
    54   51   56 1   
    55   52   53 2   
    56   52   57 1   
    57   57   58 1   
    58   57   65 1   
    59   58   59 1   
    60   58   61 1   
    61   58   66 1   
    62   59   60 2   
    63   59   69 1   
    64   61   62 1   
    65   61   67 1   
    66   61   68 1   
    67   62   63 1   
    68   62   64 1   
    69   69   70 1   
    70   69   73 1   
    71   70   71 1   
    72   70   74 1   
    73   70   75 1   
    74   71   72 2   
    75   71   76 1   
    76   76   77 1   
    77   76   85 1   
    78   77   78 1   
    79   77   80 1   
    80   77   86 1   
    81   78   79 2   
    82   78   93 1   
    83   80   81 1   
    84   80   87 1   
    85   80   88 1   
    86   81   82 1   
    87   81   89 1   
    88   81   90 1   
    89   82   83 1   
    90   82   84 2   
    91   83   91 1   
    92   83   92 1   
    93   93   94 1   
    94   93  100 1   
    95   94   95 1   
    96   94   97 1   
    97   94  101 1   
    98   95   96 2   
    99   95  109 1   
   100   97   98 1   
   101   97   99 1   
   102   97  102 1   
   103   98  103 1   
   104   98  104 1   
   105   98  105 1   
   106   99  106 1   
   107   99  107 1   
   108   99  108 1   
   109  109  110 1   
   110  109  117 1   
   111  110  111 1   
   112  110  113 1   
   113  110  118 1   
   114  111  112 2   
   115  111  123 1   
   116  113  114 1   
   117  113  119 1   
   118  113  120 1   
   119  114  115 1   
   120  114  116 2   
   121  115  121 1   
   122  115  122 1   
   123  123  124 1   
   124  123  135 1   
   125  124  125 1   
   126  124  127 1   
   127  124  136 1   
   128  125  126 2   
   129  125  144 1   
   130  127  128 1   
   131  127  137 1   
   132  127  138 1   
   133  128  129 ar  
   134  128  130 ar  
   135  129  131 ar  
   136  129  139 1   
   137  130  132 ar  
   138  130  140 1   
   139  131  133 ar  
   140  131  141 1   
   141  132  133 ar  
   142  132  142 1   
   143  133  134 1   
   144  134  143 1   
   145  144  145 1   
   146  144  153 1   
   147  145  146 1   
   148  145  148 1   
   149  145  154 1   
   150  146  147 2   
   151  146  159 1   
   152  148  149 1   
   153  148  155 1   
   154  148  156 1   
   155  149  150 1   
   156  149  157 1   
   157  149  158 1   
   158  150  151 1   
   159  150  152 1   
   160  159  160 1   
   161  159  168 1   
   162  160  161 1   
   163  160  163 1   
   164  160  169 1   
   165  161  162 2   
   166  161  174 1   
   167  163  164 1   
   168  163  170 1   
   169  163  171 1   
   170  164  165 1   
   171  164  172 1   
   172  164  173 1   
   173  165  166 1   
   174  165  167 1   
   175  174  175 1   
   176  174  179 1   
   177  175  176 1   
   178  175  177 1   
   179  175  178 1   
   180  181  182 1   
   181  181  183 1   
   182  184  185 1   
   183  184  186 1   
   184  187  188 1   
   185  187  189 1   
@<TRIPOS>SUBSTRUCTURE
     1 MOL         1 TEMP              0 ****  ****    0 ROOT
