@<TRIPOS>MOLECULE
MOL
  179   176     1     0     0
SMALL
resp


@<TRIPOS>ATOM
      1 C1          2.3340    1.3990    5.8570 c3        1 MOL     -0.174268
      2 C2          1.7340    1.3340    4.4720 c         1 MOL      0.757913
      3 O1          2.5230    1.0020    3.5790 o         1 MOL     -0.620388
      4 H1          2.3780    2.4380    6.1840 hc        1 MOL      0.040833
      5 H2          1.7160    0.8270    6.5490 hc        1 MOL      0.040833
      6 H3          3.3410    0.9820    5.8370 hc        1 MOL      0.040833
      7 N1          0.4480    1.6750    4.2810 n         1 MOL     -0.691698
      8 C3         -0.3020    1.8310    2.9950 c3        1 MOL      0.219000
      9 C4         -0.2020    3.2960    2.4930 c         1 MOL      0.548882
     10 O2         -0.8870    4.1800    3.0100 o         1 MOL     -0.541828
     11 C5         -1.7740    1.3030    3.1290 c3        1 MOL     -0.269719
     12 C6         -2.6020    1.3010    1.8580 c         1 MOL      0.877149
     13 O3         -3.8510    1.4850    1.9300 o         1 MOL     -0.713082
     14 O4         -1.9750    1.4130    0.7710 o         1 MOL     -0.713082
     15 H4          0.0010    2.0780    5.0940 hn        1 MOL      0.335864
     16 H5          0.2590    1.2300    2.2910 h1        1 MOL      0.076521
     17 H6         -2.3430    1.9100    3.8340 hc        1 MOL      0.048812
     18 H7         -1.7910    0.2480    3.4240 hc        1 MOL      0.048812
     19 N2          0.6600    3.4500    1.4850 n         1 MOL     -0.509867
     20 C7          1.1150    4.7400    0.8500 c3        1 MOL      0.054486
     21 C8          0.1660    5.5420   -0.0370 c         1 MOL      0.440944
     22 O5          0.4060    6.7320   -0.1810 o         1 MOL     -0.580845
     23 C9          2.4400    4.4490    0.1390 c3        1 MOL     -0.141714
     24 C10         3.5050    5.5790    0.3570 c3        1 MOL      0.060466
     25 C11         4.6770    5.3030   -0.5620 c3        1 MOL     -0.021491
     26 C12         5.5170    6.5370   -0.6040 c3        1 MOL     -0.040546
     27 N3          5.1000    7.3830   -1.7280 n4        1 MOL     -0.462978
     28 H8          1.0610    2.6250    1.0720 hn        1 MOL      0.330304
     29 H9          1.2090    5.4820    1.6500 h1        1 MOL      0.078137
     30 H10         2.1390    4.3490   -0.9040 hc        1 MOL      0.081404
     31 H11         2.8650    3.5140    0.5160 hc        1 MOL      0.081404
     32 H12         3.8120    5.6550    1.4020 hc        1 MOL      0.010989
     33 H13         3.1460    6.5850    0.1290 hc        1 MOL      0.010989
     34 H14         4.3780    5.0320   -1.5810 hc        1 MOL      0.045667
     35 H15         5.2970    4.5220   -0.1260 hc        1 MOL      0.045667
     36 H16         6.5520    6.2180   -0.6170 hx        1 MOL      0.122224
     37 H17         5.4560    7.0200    0.3680 hx        1 MOL      0.122224
     38 H18         5.3310    8.3600   -1.6260 hn        1 MOL      0.355782
     39 H19         5.4170    7.1430   -2.6470 hn        1 MOL      0.355782
     40 H20         4.0910    7.3290   -1.7770 hn        1 MOL      0.355782
     41 N4         -0.8350    4.9000   -0.5820 n         1 MOL     -0.118542
     42 C13        -1.9550    5.4740   -1.3590 c3        1 MOL     -0.164205
     43 C14        -3.3070    5.0940   -0.7190 c         1 MOL      0.535974
     44 O6         -4.2740    5.3930   -1.4100 o         1 MOL     -0.499656
     45 C15        -1.8840    5.1260   -2.8540 c3        1 MOL     -0.077616
     46 C16        -1.5220    3.6500   -3.1130 c         1 MOL      0.699705
     47 O7         -1.6070    2.8370   -2.1830 o         1 MOL     -0.737878
     48 O8         -0.8340    3.3590   -4.1030 o         1 MOL     -0.737878
     49 H21        -0.9050    3.8910   -0.5850 hn        1 MOL      0.149586
     50 H22        -1.8750    6.5570   -1.3640 h1        1 MOL      0.125215
     51 H23        -1.0870    5.6760   -3.3500 hc        1 MOL      0.041763
     52 H24        -2.8440    5.4040   -3.2870 hc        1 MOL      0.041763
     53 N5         -3.4530    4.5970    0.5250 n         1 MOL     -0.335752
     54 C17        -4.7480    4.4840    1.2530 c3        1 MOL     -0.149998
     55 C18        -5.8350    3.6640    0.6170 c         1 MOL      0.440840
     56 O9         -6.9930    4.1120    0.7420 o         1 MOL     -0.562520
     57 H25        -2.6330    4.2570    1.0190 hn        1 MOL      0.209648
     58 H26        -5.1390    5.4940    1.3750 h1        1 MOL      0.126032
     59 H27        -4.5670    3.9900    2.2060 h1        1 MOL      0.126032
     60 N6         -5.5310    2.6150   -0.1100 n         1 MOL     -0.114264
     61 C19        -6.5000    1.7740   -0.9110 c3        1 MOL     -0.044110
     62 C20        -6.9090    0.4740   -0.1950 c         1 MOL      0.359737
     63 O10        -7.7950   -0.2420   -0.5960 o         1 MOL     -0.477910
     64 C21        -5.9120    1.4500   -2.3210 c3        1 MOL      0.039131
     65 C22        -4.8570    0.3680   -2.5600 c         1 MOL      0.632435
     66 N7         -5.0420   -0.4250   -3.5670 n         1 MOL     -0.724782
     67 O11        -3.9150    0.2090   -1.8230 o         1 MOL     -0.637296
     68 H28        -4.5320    2.4600   -0.1970 hn        1 MOL      0.106039
     69 H29        -7.4040    2.3670   -1.0010 h1        1 MOL      0.124325
     70 H30        -5.5930    2.3490   -2.8520 hc        1 MOL     -0.005129
     71 H31        -6.7860    1.0700   -2.8720 hc        1 MOL     -0.005129
     72 H32        -5.7900   -0.1620   -4.1990 hn        1 MOL      0.362274
     73 H33        -4.3860   -1.1790   -3.6840 hn        1 MOL      0.362274
     74 N8         -6.2580    0.1900    0.9500 n         1 MOL     -0.163162
     75 C23        -6.4510   -0.9410    1.8790 c3        1 MOL     -0.131823
     76 C24        -5.5220   -2.0870    1.7860 c         1 MOL      0.493979
     77 O12        -5.8170   -3.1600    2.2770 o         1 MOL     -0.531236
     78 H34        -5.5070    0.8150    1.2040 hn        1 MOL      0.200731
     79 H35        -7.4920   -1.2330    1.7980 h1        1 MOL      0.095020
     80 H36        -6.3620   -0.4810    2.8690 h1        1 MOL      0.095020
     81 N9         -4.4100   -1.9450    1.0670 n         1 MOL     -0.129068
     82 C25        -3.4300   -3.0580    0.9140 c3        1 MOL      0.114091
     83 C26        -1.9160   -2.6080    0.8150 c         1 MOL      0.375327
     84 O13        -1.5310   -1.5070    0.3450 o         1 MOL     -0.620432
     85 C27        -3.7680   -3.8300   -0.4250 c3        1 MOL      0.087970
     86 C28        -5.0810   -4.6080   -0.5040 ca        1 MOL      0.021460
     87 C29        -6.2680   -3.9010   -0.8820 ca        1 MOL     -0.271747
     88 C30        -5.1830   -6.0160   -0.2310 ca        1 MOL     -0.271747
     89 C31        -7.5060   -4.6360   -0.9610 ca        1 MOL     -0.064364
     90 C32        -6.4070   -6.7110   -0.4380 ca        1 MOL     -0.064364
     91 C33        -7.5750   -6.0220   -0.9330 ca        1 MOL      0.142433
     92 O14        -8.7710   -6.7000   -1.1330 oh        1 MOL     -0.429559
     93 H37        -4.1350   -1.0040    0.8300 hn        1 MOL      0.038271
     94 H38        -3.5670   -3.7110    1.7750 h1        1 MOL      0.019038
     95 H39        -2.9680   -4.5480   -0.5920 hc        1 MOL      0.010467
     96 H40        -3.7360   -3.1930   -1.3060 hc        1 MOL      0.010467
     97 H41        -6.2520   -2.8260   -0.9820 ha        1 MOL      0.147186
     98 H42        -4.3060   -6.5580    0.0820 ha        1 MOL      0.147186
     99 H43        -8.4380   -4.1480   -1.2030 ha        1 MOL      0.097719
    100 H44        -6.4680   -7.7860   -0.4450 ha        1 MOL      0.097719
    101 H45        -8.6310   -7.6380   -0.9490 ho        1 MOL      0.336973
    102 N10        -1.0270   -3.4450    1.3180 n         1 MOL     -0.218438
    103 C34         0.3910   -3.3050    1.3530 c3        1 MOL     -0.178885
    104 C35         1.0430   -4.1660    0.2680 c         1 MOL      0.483327
    105 O15         0.8770   -5.3680    0.2450 o         1 MOL     -0.533494
    106 C36         0.9230   -3.5590    2.7720 c3        1 MOL      0.141518
    107 C37         0.3950   -2.5790    3.8410 c3        1 MOL      0.158558
    108 C38         2.4310   -3.6220    2.7880 c3        1 MOL     -0.318499
    109 C39         0.6270   -2.9760    5.2860 c3        1 MOL     -0.359125
    110 H46        -1.3360   -4.3510    1.6290 hn        1 MOL      0.237643
    111 H47         0.6940   -2.2980    1.0760 h1        1 MOL      0.216938
    112 H48         0.6510   -4.5770    3.0660 hc        1 MOL      0.016591
    113 H49        -0.6810   -2.6100    3.6400 hc        1 MOL     -0.031769
    114 H50         0.6320   -1.5570    3.5600 hc        1 MOL     -0.031769
    115 H51         2.9130   -2.6960    2.4770 hc        1 MOL      0.070842
    116 H52         2.6700   -3.9250    3.8050 hc        1 MOL      0.070842
    117 H53         2.7410   -4.4180    2.1020 hc        1 MOL      0.070842
    118 H54         1.6960   -2.9540    5.5260 hc        1 MOL      0.091065
    119 H55         0.1720   -2.2950    6.0060 hc        1 MOL      0.091065
    120 H56         0.4060   -4.0200    5.4580 hc        1 MOL      0.091065
    121 N11         1.8130   -3.5640   -0.6420 n         1 MOL     -0.262784
    122 C40         2.8560   -4.1720   -1.4610 c3        1 MOL     -0.018150
    123 C41         4.2690   -3.9880   -0.9440 c         1 MOL      0.568741
    124 O16         4.5310   -3.0220   -0.2470 o         1 MOL     -0.464529
    125 C42         2.6810   -3.5520   -2.8630 c3        1 MOL     -0.062631
    126 O17         2.9510   -2.1610   -2.8650 oh        1 MOL     -0.513468
    127 H57         1.7050   -2.5600   -0.7500 hn        1 MOL      0.227834
    128 H58         2.6610   -5.2310   -1.5770 h1        1 MOL      0.043494
    129 H59         1.6960   -3.7760   -3.2740 h1        1 MOL      0.084368
    130 H60         3.4580   -3.9590   -3.5050 h1        1 MOL      0.084368
    131 H61         2.2480   -1.7530   -2.3470 ho        1 MOL      0.364483
    132 N12         5.2170   -4.7950   -1.3800 n         1 MOL     -0.475543
    133 C43         6.5700   -4.6960   -0.9010 c3        1 MOL      0.082948
    134 C44         7.2400   -3.3160   -1.0600 c         1 MOL      0.519382
    135 O18         8.1090   -2.8650   -0.1990 o         1 MOL     -0.531383
    136 C45         7.4770   -5.7490   -1.4670 c3        1 MOL     -0.432456
    137 H62         5.0000   -5.4870   -2.0840 hn        1 MOL      0.316554
    138 H63         6.5640   -4.7950    0.1860 h1        1 MOL      0.097071
    139 H64         7.1570   -6.6930   -1.0160 hc        1 MOL      0.134606
    140 H65         7.2890   -5.9000   -2.5300 hc        1 MOL      0.134606
    141 H66         8.5210   -5.5880   -1.1810 hc        1 MOL      0.134606
    142 N13         6.9910   -2.5680   -2.1480 n         1 MOL     -0.485273
    143 C46         7.5480   -1.1620   -2.3920 c3        1 MOL      0.121851
    144 C47         7.1950   -0.1120   -1.3120 c         1 MOL      0.342248
    145 O19         8.0370    0.6770   -0.9380 o         1 MOL     -0.494656
    146 C48         7.1540   -0.7750   -3.7820 c3        1 MOL     -0.243726
    147 H67         6.1550   -2.8250   -2.6630 hn        1 MOL      0.295950
    148 H68         8.6270   -1.2790   -2.2600 h1        1 MOL      0.099131
    149 H69         7.5030   -1.5710   -4.4320 hc        1 MOL      0.069274
    150 H70         6.0680   -0.6870   -3.8270 hc        1 MOL      0.069274
    151 H71         7.6220    0.1240   -4.1810 hc        1 MOL      0.069274
    152 N14         5.9890   -0.2920   -0.8170 n         1 MOL     -0.114474
    153 C49         5.4450    0.4930    0.3050 c3        1 MOL     -0.326097
    154 C50         6.2360    0.2120    1.6270 c         1 MOL      0.519704
    155 O20         6.4640    1.0670    2.4460 o         1 MOL     -0.540872
    156 C51         3.9280    0.2030    0.5360 c3        1 MOL      0.317808
    157 C52         3.1680    0.6740   -0.7090 c3        1 MOL      0.162282
    158 C53         1.7180    0.2310   -0.4930 c         1 MOL      0.593148
    159 O21         1.2900   -0.8180   -1.0550 o         1 MOL     -0.729072
    160 O22         0.8900    0.9940   -0.0360 o         1 MOL     -0.729072
    161 H72         5.3750   -0.9940   -1.2220 hn        1 MOL      0.235427
    162 H73         5.6770    1.5450    0.2090 h1        1 MOL      0.128561
    163 H74         3.6860    0.6570    1.4900 hc        1 MOL     -0.040491
    164 H75         3.7360   -0.8670    0.6710 hc        1 MOL     -0.040491
    165 H76         3.4370    0.1230   -1.6070 hc        1 MOL     -0.140084
    166 H77         3.2360    1.7620   -0.7860 hc        1 MOL     -0.140084
    167 N15         6.6530   -1.0500    1.8010 n         1 MOL     -0.077577
    168 C54         7.4850   -1.4600    2.9480 c3        1 MOL     -0.322830
    169 H78         7.5110   -0.6550    3.6840 h1        1 MOL      0.121499
    170 H79         7.0590   -2.3540    3.4040 h1        1 MOL      0.121499
    171 H80         8.4980   -1.6730    2.6070 h1        1 MOL      0.121499
    172 H81         6.3000   -1.7710    1.1870 hn        1 MOL      0.126134
    173 Ca1        -1.1820    0.4140   -1.5240 Ca        1 MOL      1.785906
    174 O23         0.7030    0.8630   -3.4070 oh        1 MOL     -0.880477
    175 H82         1.6550    0.8900   -3.2620 ho        1 MOL      0.433747
    176 H83         0.5030    1.6950   -3.8240 ho        1 MOL      0.433747
    177 O24        -1.6730   -1.1550   -3.6630 oh        1 MOL     -0.880477
    178 H84        -1.6660   -0.4360   -4.3050 ho        1 MOL      0.433747
    179 H85        -1.2830   -1.8960   -4.1330 ho        1 MOL      0.433747
@<TRIPOS>BOND
     1    1    2 1   
     2    1    4 1   
     3    1    5 1   
     4    1    6 1   
     5    2    3 2   
     6    2    7 1   
     7    7    8 1   
     8    7   15 1   
     9    8    9 1   
    10    8   11 1   
    11    8   16 1   
    12    9   10 2   
    13    9   19 1   
    14   11   12 1   
    15   11   17 1   
    16   11   18 1   
    17   12   13 1   
    18   12   14 1   
    19   19   20 1   
    20   19   28 1   
    21   20   21 1   
    22   20   23 1   
    23   20   29 1   
    24   21   22 2   
    25   21   41 1   
    26   23   24 1   
    27   23   30 1   
    28   23   31 1   
    29   24   25 1   
    30   24   32 1   
    31   24   33 1   
    32   25   26 1   
    33   25   34 1   
    34   25   35 1   
    35   26   27 1   
    36   26   36 1   
    37   26   37 1   
    38   27   38 1   
    39   27   39 1   
    40   27   40 1   
    41   41   42 1   
    42   41   49 1   
    43   42   43 1   
    44   42   45 1   
    45   42   50 1   
    46   43   44 2   
    47   43   53 1   
    48   45   46 1   
    49   45   51 1   
    50   45   52 1   
    51   46   47 1   
    52   46   48 1   
    53   53   54 1   
    54   53   57 1   
    55   54   55 1   
    56   54   58 1   
    57   54   59 1   
    58   55   56 2   
    59   55   60 1   
    60   60   61 1   
    61   60   68 1   
    62   61   62 1   
    63   61   64 1   
    64   61   69 1   
    65   62   63 2   
    66   62   74 1   
    67   64   65 1   
    68   64   70 1   
    69   64   71 1   
    70   65   66 1   
    71   65   67 2   
    72   66   72 1   
    73   66   73 1   
    74   74   75 1   
    75   74   78 1   
    76   75   76 1   
    77   75   79 1   
    78   75   80 1   
    79   76   77 2   
    80   76   81 1   
    81   81   82 1   
    82   81   93 1   
    83   82   83 1   
    84   82   85 1   
    85   82   94 1   
    86   83   84 2   
    87   83  102 1   
    88   85   86 1   
    89   85   95 1   
    90   85   96 1   
    91   86   87 ar  
    92   86   88 ar  
    93   87   89 ar  
    94   87   97 1   
    95   88   90 ar  
    96   88   98 1   
    97   89   91 ar  
    98   89   99 1   
    99   90   91 ar  
   100   90  100 1   
   101   91   92 1   
   102   92  101 1   
   103  102  103 1   
   104  102  110 1   
   105  103  104 1   
   106  103  106 1   
   107  103  111 1   
   108  104  105 2   
   109  104  121 1   
   110  106  107 1   
   111  106  108 1   
   112  106  112 1   
   113  107  109 1   
   114  107  113 1   
   115  107  114 1   
   116  108  115 1   
   117  108  116 1   
   118  108  117 1   
   119  109  118 1   
   120  109  119 1   
   121  109  120 1   
   122  121  122 1   
   123  121  127 1   
   124  122  123 1   
   125  122  125 1   
   126  122  128 1   
   127  123  124 2   
   128  123  132 1   
   129  125  126 1   
   130  125  129 1   
   131  125  130 1   
   132  126  131 1   
   133  132  133 1   
   134  132  137 1   
   135  133  134 1   
   136  133  136 1   
   137  133  138 1   
   138  134  135 2   
   139  134  142 1   
   140  136  139 1   
   141  136  140 1   
   142  136  141 1   
   143  142  143 1   
   144  142  147 1   
   145  143  144 1   
   146  143  146 1   
   147  143  148 1   
   148  144  145 2   
   149  144  152 1   
   150  146  149 1   
   151  146  150 1   
   152  146  151 1   
   153  152  153 1   
   154  152  161 1   
   155  153  154 1   
   156  153  156 1   
   157  153  162 1   
   158  154  155 2   
   159  154  167 1   
   160  156  157 1   
   161  156  163 1   
   162  156  164 1   
   163  157  158 1   
   164  157  165 1   
   165  157  166 1   
   166  158  159 1   
   167  158  160 1   
   168  167  168 1   
   169  167  172 1   
   170  168  169 1   
   171  168  170 1   
   172  168  171 1   
   173  174  175 1   
   174  174  176 1   
   175  177  178 1   
   176  177  179 1   
@<TRIPOS>SUBSTRUCTURE
     1 MOL         1 TEMP              0 ****  ****    0 ROOT
