@<TRIPOS>MOLECULE
MOL
  189   185     1     0     0
SMALL
resp


@<TRIPOS>ATOM
      1 C1          0.7780   -1.7800    6.6820 c3        1 MOL     -0.552449
      2 C2          1.0590   -1.7400    5.1480 c         1 MOL      0.677643
      3 O1          0.9980   -0.6950    4.5530 o         1 MOL     -0.530026
      4 H1          1.1200   -2.7320    7.0880 hc        1 MOL      0.141178
      5 H2          1.3120   -0.9650    7.1710 hc        1 MOL      0.141178
      6 H3         -0.2920   -1.6740    6.8590 hc        1 MOL      0.141178
      7 N1          1.4150   -2.8850    4.5710 n         1 MOL     -0.436739
      8 C3          1.9770   -3.0080    3.1770 c3        1 MOL      0.005776
      9 C4          1.7790   -4.3460    2.5020 c         1 MOL      0.514471
     10 O2          1.9500   -5.3590    3.1410 o         1 MOL     -0.557119
     11 C5          3.4210   -2.7210    3.3790 c3        1 MOL     -0.262671
     12 C6          4.1760   -2.1280    2.1880 c         1 MOL      0.806441
     13 O3          5.3160   -1.6830    2.4430 o         1 MOL     -0.708309
     14 O4          3.7550   -2.1570    0.9910 o         1 MOL     -0.708309
     15 H4          1.2430   -3.7570    5.0580 hn        1 MOL      0.275008
     16 H5          1.5080   -2.1920    2.6230 h1        1 MOL      0.041295
     17 H6          3.9530   -3.6310    3.6610 hc        1 MOL      0.073812
     18 H7          3.6050   -2.0550    4.2110 hc        1 MOL      0.073812
     19 N2          1.5160   -4.3550    1.1740 n         1 MOL     -0.043013
     20 C7          1.5380   -5.5560    0.3180 c3        1 MOL     -0.349531
     21 C8          2.5500   -5.5660   -0.9090 c         1 MOL      0.683265
     22 O5          2.6630   -6.5020   -1.7130 o         1 MOL     -0.584736
     23 C9          0.1210   -5.9600   -0.1320 c3        1 MOL      0.313906
     24 C10        -0.4930   -5.0020   -1.1610 c3        1 MOL      0.010382
     25 C11        -0.8370   -6.1110    1.0170 c3        1 MOL     -0.122242
     26 C12        -1.9670   -5.3790   -1.6290 c3        1 MOL     -0.415636
     27 H8          1.2890   -3.4920    0.6930 hn        1 MOL      0.086853
     28 H9          1.9760   -6.2940    0.9870 h1        1 MOL      0.106065
     29 H10         0.2040   -6.9220   -0.6440 hc        1 MOL     -0.065399
     30 H11         0.1820   -5.0870   -2.0060 hc        1 MOL      0.038485
     31 H12        -0.5290   -4.0280   -0.6730 hc        1 MOL      0.038485
     32 H13        -1.8000   -6.5370    0.7370 hc        1 MOL      0.000384
     33 H14        -0.4320   -6.7650    1.7890 hc        1 MOL      0.000384
     34 H15        -0.9680   -5.1190    1.4510 hc        1 MOL      0.000384
     35 H16        -1.8900   -6.4370   -1.8730 hc        1 MOL      0.115303
     36 H17        -2.5760   -5.1410   -0.7560 hc        1 MOL      0.115303
     37 H18        -2.3140   -4.8440   -2.5150 hc        1 MOL      0.115303
     38 N3          3.3510   -4.4740   -1.0350 n         1 MOL     -0.622975
     39 C13         4.2540   -4.2200   -2.2250 c3        1 MOL      0.142081
     40 C14         5.5840   -3.5460   -1.9280 c         1 MOL      0.361379
     41 O6          6.4300   -3.5980   -2.7890 o         1 MOL     -0.551101
     42 C15         3.5490   -3.4210   -3.3710 c3        1 MOL     -0.457708
     43 C16         2.8810   -2.1340   -2.8690 c         1 MOL      0.824942
     44 O7          3.4160   -1.4980   -1.9330 o         1 MOL     -0.684450
     45 O8          1.8860   -1.7200   -3.4830 o         1 MOL     -0.684450
     46 H19         3.1300   -3.7170   -0.4150 hn        1 MOL      0.323139
     47 H20         4.5140   -5.1980   -2.6390 h1        1 MOL      0.102325
     48 H21         2.7440   -4.0520   -3.7280 hc        1 MOL      0.131131
     49 H22         4.3600   -3.1300   -4.0350 hc        1 MOL      0.131131
     50 N4          5.8430   -2.9610   -0.7670 n         1 MOL     -0.101370
     51 C17         7.1040   -2.3960   -0.3850 c3        1 MOL     -0.370450
     52 C18         7.4600   -1.0130   -1.0350 c         1 MOL      0.688892
     53 O9          8.5680   -0.6190   -0.9540 o         1 MOL     -0.633765
     54 H23         5.1210   -2.8140   -0.0660 hn        1 MOL      0.159313
     55 H24         7.9660   -2.9960   -0.6760 h1        1 MOL      0.124443
     56 H25         7.0020   -2.1750    0.6790 h1        1 MOL      0.124443
     57 N5          6.4530   -0.3290   -1.5860 n         1 MOL     -0.294449
     58 C19         6.6690    0.8270   -2.4810 c3        1 MOL     -0.066153
     59 C20         6.8840    2.1880   -1.7980 c         1 MOL      0.474837
     60 O10         6.9690    3.2370   -2.4350 o         1 MOL     -0.559628
     61 C21         5.5000    0.9870   -3.4980 c3        1 MOL     -0.270237
     62 C22         4.1230    1.4360   -2.7810 c         1 MOL      0.746927
     63 O11         4.0260    1.6580   -1.5390 o         1 MOL     -0.674880
     64 O12         3.1760    1.5250   -3.5690 o         1 MOL     -0.674880
     65 H26         5.4890   -0.6130   -1.5350 hn        1 MOL      0.266466
     66 H27         7.6090    0.5610   -2.9700 h1        1 MOL      0.085087
     67 H28         5.2740    0.0860   -4.0740 hc        1 MOL      0.079906
     68 H29         5.8770    1.7720   -4.1510 hc        1 MOL      0.079906
     69 N6          6.9030    2.1630   -0.5000 n         1 MOL     -0.296093
     70 C23         7.0320    3.3180    0.4270 c3        1 MOL     -0.196695
     71 C24         5.8090    4.3180    0.5890 c         1 MOL      0.507936
     72 O13         6.0900    5.3700    1.0840 o         1 MOL     -0.580129
     73 H30         6.6810    1.3140   -0.0090 hn        1 MOL      0.264710
     74 H31         7.8140    3.9130   -0.0640 h1        1 MOL      0.100580
     75 H32         7.4140    3.0530    1.4110 h1        1 MOL      0.100580
     76 N7          4.5920    3.9440    0.2220 n         1 MOL     -0.137840
     77 C25         3.3600    4.5820    0.7420 c3        1 MOL     -0.158522
     78 C26         2.3170    3.5520    1.2250 c         1 MOL      0.610531
     79 O14         2.4160    2.3830    0.8580 o         1 MOL     -0.620482
     80 C27         2.7710    5.4660   -0.3890 c3        1 MOL      0.152617
     81 C28         3.7820    6.5440   -0.7490 c3        1 MOL     -0.334788
     82 C29         3.0120    7.4610   -1.7200 c         1 MOL      0.619272
     83 N8          3.0590    7.1830   -3.0150 n         1 MOL     -0.783797
     84 O15         2.3030    8.4130   -1.3620 o         1 MOL     -0.594189
     85 H33         4.4760    3.0950   -0.3140 hn        1 MOL      0.140773
     86 H34         3.5570    5.3160    1.5260 h1        1 MOL      0.079099
     87 H35         1.8440    5.9060   -0.0130 hc        1 MOL      0.022168
     88 H36         2.4770    4.8870   -1.2550 hc        1 MOL      0.022168
     89 H37         4.5950    6.1160   -1.3390 hc        1 MOL      0.124593
     90 H38         4.0770    7.0750    0.1640 hc        1 MOL      0.124593
     91 H39         3.5170    6.3630   -3.3700 hn        1 MOL      0.363885
     92 H40         2.4330    7.7400   -3.5710 hn        1 MOL      0.363885
     93 N9          1.3400    3.8670    2.0440 n         1 MOL     -0.540069
     94 C30         0.1090    3.1370    2.2960 c3        1 MOL     -0.034510
     95 C31        -0.8020    3.4400    1.0800 c         1 MOL      0.459020
     96 O16        -1.0560    4.6040    0.7270 o         1 MOL     -0.585978
     97 C32        -0.4520    3.5670    3.6340 c3        1 MOL      0.273332
     98 C33        -1.5630    2.4650    3.9430 c3        1 MOL     -0.231006
     99 C34         0.5100    3.7460    4.8570 c3        1 MOL     -0.231006
    100 H41         1.2220    4.8480    2.2380 hn        1 MOL      0.279079
    101 H42         0.4050    2.0900    2.3830 h1        1 MOL      0.285202
    102 H43        -1.0290    4.4930    3.5360 hc        1 MOL     -0.035410
    103 H44        -1.0010    1.5300    4.0050 hc        1 MOL      0.044523
    104 H45        -2.1420    2.8300    4.7890 hc        1 MOL      0.044523
    105 H46        -2.2690    2.4800    3.1060 hc        1 MOL      0.044523
    106 H47         1.4160    4.2830    4.5650 hc        1 MOL      0.044523
    107 H48        -0.0090    4.3330    5.6110 hc        1 MOL      0.044523
    108 H49         0.7680    2.7140    5.0920 hc        1 MOL      0.044523
    109 N10        -1.4190    2.3920    0.5030 n         1 MOL      0.078200
    110 C35        -2.4470    2.4480   -0.5330 c3        1 MOL      0.097462
    111 C36        -3.8080    2.1270   -0.0170 c         1 MOL      0.400420
    112 O17        -3.8920    1.4210    0.9940 o         1 MOL     -0.420214
    113 C37        -2.0510    1.5150   -1.7200 c3        1 MOL     -0.212915
    114 C38        -3.0160    1.3200   -2.8920 c         1 MOL      0.707436
    115 N11        -3.3100    2.3380   -3.6260 n         1 MOL     -0.741230
    116 O18        -3.5010    0.2280   -3.1180 o         1 MOL     -0.501936
    117 H50        -1.2280    1.4610    0.8610 hn        1 MOL     -0.284123
    118 H51        -2.4840    3.4940   -0.8450 h1        1 MOL      0.007230
    119 H52        -1.8670    0.5520   -1.2590 hc        1 MOL      0.082520
    120 H53        -1.1410    1.9530   -2.1310 hc        1 MOL      0.082520
    121 H54        -2.9690    3.2200   -3.2750 hn        1 MOL      0.348493
    122 H55        -3.9890    2.1760   -4.3550 hn        1 MOL      0.348493
    123 N12        -4.8600    2.3930   -0.7770 n         1 MOL     -0.429514
    124 C39        -6.2530    1.9780   -0.5010 c3        1 MOL      0.176185
    125 C40        -6.4570    0.4820   -0.2800 c         1 MOL      0.628144
    126 O19        -7.1890    0.0960    0.5920 o         1 MOL     -0.555712
    127 C41        -7.2140    2.5880   -1.5700 c3        1 MOL     -0.183740
    128 C42        -8.7450    2.3270   -1.3130 ca        1 MOL     -0.090958
    129 C43        -9.3380    2.9480   -0.2090 ca        1 MOL     -0.028092
    130 C44        -9.5360    1.4400   -2.0650 ca        1 MOL     -0.028092
    131 C45       -10.6980    2.8000    0.0530 ca        1 MOL     -0.381809
    132 C46       -10.9130    1.2300   -1.7660 ca        1 MOL     -0.381809
    133 C47       -11.4860    1.8290   -0.6300 ca        1 MOL      0.489985
    134 O20       -12.7850    1.5830   -0.3420 oh        1 MOL     -0.560155
    135 H56        -4.6540    2.7800   -1.6910 hn        1 MOL      0.185228
    136 H57        -6.5490    2.4130    0.4610 h1        1 MOL      0.040921
    137 H58        -6.9080    2.1990   -2.5500 hc        1 MOL      0.078048
    138 H59        -7.0090    3.6510   -1.6310 hc        1 MOL      0.078048
    139 H60        -8.8330    3.7220    0.3500 ha        1 MOL      0.113990
    140 H61        -8.9910    0.8940   -2.8200 ha        1 MOL      0.113990
    141 H62       -11.0990    3.3880    0.8580 ha        1 MOL      0.161227
    142 H63       -11.4710    0.5450   -2.3840 ha        1 MOL      0.161227
    143 H64       -13.1650    0.8930   -0.8900 ho        1 MOL      0.390482
    144 N13        -5.6710   -0.3730   -0.9710 n         1 MOL     -0.409117
    145 C48        -5.7290   -1.8840   -0.7860 c3        1 MOL     -0.151009
    146 C49        -5.2160   -2.3340    0.6010 c         1 MOL      0.467086
    147 O21        -5.5800   -3.3730    1.0740 o         1 MOL     -0.531550
    148 C50        -5.1180   -2.6380   -2.0180 c3        1 MOL     -0.009786
    149 C51        -5.8900   -2.3720   -3.3060 c3        1 MOL     -0.014588
    150 C52        -5.4770   -3.3210   -4.4730 c         1 MOL      0.664197
    151 O22        -6.1990   -4.3070   -4.6500 o         1 MOL     -0.725768
    152 O23        -4.5690   -2.9160   -5.2350 o         1 MOL     -0.725768
    153 H65        -5.2630   -0.0160   -1.8280 hn        1 MOL      0.238034
    154 H66        -6.7410   -2.2930   -0.7010 h1        1 MOL      0.126503
    155 H67        -5.0970   -3.7000   -1.7960 hc        1 MOL      0.048046
    156 H68        -4.0900   -2.3780   -2.2820 hc        1 MOL      0.048046
    157 H69        -5.8240   -1.3090   -3.5550 hc        1 MOL     -0.049358
    158 H70        -6.9170   -2.6480   -3.0610 hc        1 MOL     -0.049358
    159 N14        -4.3350   -1.5160    1.1640 n         1 MOL     -0.247296
    160 C53        -3.6040   -1.6680    2.4140 c3        1 MOL     -0.105356
    161 C54        -4.1320   -0.9700    3.6030 c         1 MOL      0.416354
    162 O24        -3.8090   -1.2600    4.7780 o         1 MOL     -0.564927
    163 C55        -2.0580   -1.4000    2.2510 c3        1 MOL      0.003519
    164 C56        -1.5340   -1.6320    0.8030 c3        1 MOL     -0.316200
    165 C57        -0.1350   -1.0330    0.5840 c         1 MOL      0.719099
    166 O25         0.7960   -1.7330    0.1460 o         1 MOL     -0.631510
    167 O26         0.0580    0.1250    1.0080 o         1 MOL     -0.631510
    168 H71        -4.2150   -0.6170    0.7250 hn        1 MOL      0.233916
    169 H72        -3.6600   -2.7380    2.6380 h1        1 MOL      0.115550
    170 H73        -1.4460   -1.9790    2.9440 hc        1 MOL      0.060736
    171 H74        -1.8810   -0.3670    2.5720 hc        1 MOL      0.060736
    172 H75        -2.1470   -1.1430    0.0570 hc        1 MOL      0.111788
    173 H76        -1.6370   -2.6930    0.5700 hc        1 MOL      0.111788
    174 N15        -5.0360   -0.0120    3.3780 n         1 MOL     -0.077200
    175 C58        -5.7380    0.7780    4.4470 c3        1 MOL     -0.167177
    176 H77        -6.3050    1.5880    3.9860 h1        1 MOL      0.073104
    177 H78        -6.4180    0.1260    4.9940 h1        1 MOL      0.073104
    178 H79        -5.0020    1.1960    5.1330 h1        1 MOL      0.073104
    179 H80        -5.2170    0.1880    2.4050 hn        1 MOL      0.104065
    180 Ca1         2.6130    0.0730    0.0810 Ca        1 MOL      1.666270
    181 O27         2.5780    0.4760    2.8230 oh        1 MOL     -0.826184
    182 H81         3.1490    0.9330    3.4460 ho        1 MOL      0.386737
    183 H82         1.9280    0.0310    3.3720 ho        1 MOL      0.386737
    184 O28         1.2120    0.6340   -2.1160 oh        1 MOL     -0.826184
    185 H83         1.2230   -0.0860   -2.7340 ho        1 MOL      0.386737
    186 H84         1.7110    1.3310   -2.5360 ho        1 MOL      0.386737
    187 O29         5.1490    0.5890    1.1300 oh        1 MOL     -0.826184
    188 H85         5.3370   -0.2560    1.5310 ho        1 MOL      0.386737
    189 H86         4.9940    1.1830    1.8700 ho        1 MOL      0.386737
@<TRIPOS>BOND
     1    1    2 1   
     2    1    4 1   
     3    1    5 1   
     4    1    6 1   
     5    2    3 2   
     6    2    7 1   
     7    7    8 1   
     8    7   15 1   
     9    8    9 1   
    10    8   11 1   
    11    8   16 1   
    12    9   10 2   
    13    9   19 1   
    14   11   12 1   
    15   11   17 1   
    16   11   18 1   
    17   12   13 1   
    18   12   14 1   
    19   19   20 1   
    20   19   27 1   
    21   20   21 1   
    22   20   23 1   
    23   20   28 1   
    24   21   22 2   
    25   21   38 1   
    26   23   24 1   
    27   23   25 1   
    28   23   29 1   
    29   24   26 1   
    30   24   30 1   
    31   24   31 1   
    32   25   32 1   
    33   25   33 1   
    34   25   34 1   
    35   26   35 1   
    36   26   36 1   
    37   26   37 1   
    38   38   39 1   
    39   38   46 1   
    40   39   40 1   
    41   39   42 1   
    42   39   47 1   
    43   40   41 2   
    44   40   50 1   
    45   42   43 1   
    46   42   48 1   
    47   42   49 1   
    48   43   44 1   
    49   43   45 1   
    50   50   51 1   
    51   50   54 1   
    52   51   52 1   
    53   51   55 1   
    54   51   56 1   
    55   52   53 2   
    56   52   57 1   
    57   57   58 1   
    58   57   65 1   
    59   58   59 1   
    60   58   61 1   
    61   58   66 1   
    62   59   60 2   
    63   59   69 1   
    64   61   62 1   
    65   61   67 1   
    66   61   68 1   
    67   62   63 1   
    68   62   64 1   
    69   69   70 1   
    70   69   73 1   
    71   70   71 1   
    72   70   74 1   
    73   70   75 1   
    74   71   72 2   
    75   71   76 1   
    76   76   77 1   
    77   76   85 1   
    78   77   78 1   
    79   77   80 1   
    80   77   86 1   
    81   78   79 2   
    82   78   93 1   
    83   80   81 1   
    84   80   87 1   
    85   80   88 1   
    86   81   82 1   
    87   81   89 1   
    88   81   90 1   
    89   82   83 1   
    90   82   84 2   
    91   83   91 1   
    92   83   92 1   
    93   93   94 1   
    94   93  100 1   
    95   94   95 1   
    96   94   97 1   
    97   94  101 1   
    98   95   96 2   
    99   95  109 1   
   100   97   98 1   
   101   97   99 1   
   102   97  102 1   
   103   98  103 1   
   104   98  104 1   
   105   98  105 1   
   106   99  106 1   
   107   99  107 1   
   108   99  108 1   
   109  109  110 1   
   110  109  117 1   
   111  110  111 1   
   112  110  113 1   
   113  110  118 1   
   114  111  112 2   
   115  111  123 1   
   116  113  114 1   
   117  113  119 1   
   118  113  120 1   
   119  114  115 1   
   120  114  116 2   
   121  115  121 1   
   122  115  122 1   
   123  123  124 1   
   124  123  135 1   
   125  124  125 1   
   126  124  127 1   
   127  124  136 1   
   128  125  126 2   
   129  125  144 1   
   130  127  128 1   
   131  127  137 1   
   132  127  138 1   
   133  128  129 ar  
   134  128  130 ar  
   135  129  131 ar  
   136  129  139 1   
   137  130  132 ar  
   138  130  140 1   
   139  131  133 ar  
   140  131  141 1   
   141  132  133 ar  
   142  132  142 1   
   143  133  134 1   
   144  134  143 1   
   145  144  145 1   
   146  144  153 1   
   147  145  146 1   
   148  145  148 1   
   149  145  154 1   
   150  146  147 2   
   151  146  159 1   
   152  148  149 1   
   153  148  155 1   
   154  148  156 1   
   155  149  150 1   
   156  149  157 1   
   157  149  158 1   
   158  150  151 1   
   159  150  152 1   
   160  159  160 1   
   161  159  168 1   
   162  160  161 1   
   163  160  163 1   
   164  160  169 1   
   165  161  162 2   
   166  161  174 1   
   167  163  164 1   
   168  163  170 1   
   169  163  171 1   
   170  164  165 1   
   171  164  172 1   
   172  164  173 1   
   173  165  166 1   
   174  165  167 1   
   175  174  175 1   
   176  174  179 1   
   177  175  176 1   
   178  175  177 1   
   179  175  178 1   
   180  181  182 1   
   181  181  183 1   
   182  184  185 1   
   183  184  186 1   
   184  187  188 1   
   185  187  189 1   
@<TRIPOS>SUBSTRUCTURE
     1 MOL         1 TEMP              0 ****  ****    0 ROOT
