@<TRIPOS>MOLECULE
MOL
  179   176     1     0     0
SMALL
resp


@<TRIPOS>ATOM
      1 C1         -2.0380   -2.6990    6.1460 c3        1 MOL     -0.362411
      2 C2         -1.6670   -2.4030    4.6620 c         1 MOL      0.820371
      3 O1         -2.4530   -2.3830    3.7440 o         1 MOL     -0.638325
      4 H1         -1.3430   -3.4330    6.5540 hc        1 MOL      0.092439
      5 H2         -1.9770   -1.7790    6.7270 hc        1 MOL      0.092439
      6 H3         -3.0520   -3.0940    6.1960 hc        1 MOL      0.092439
      7 N1         -0.3540   -2.3210    4.3850 n         1 MOL     -0.675912
      8 C3          0.2090   -2.3550    2.9940 c3        1 MOL      0.043800
      9 C4          0.0190   -3.7640    2.3190 c         1 MOL      0.597958
     10 O2          0.3270   -4.8290    2.9290 o         1 MOL     -0.558244
     11 C5          1.6670   -2.0010    3.0420 c3        1 MOL     -0.129023
     12 C6          2.4940   -1.7970    1.6920 c         1 MOL      0.915006
     13 O3          1.9260   -1.9890    0.5660 o         1 MOL     -0.826773
     14 O4          3.6480   -1.3320    1.7610 o         1 MOL     -0.826773
     15 H4          0.3160   -2.3860    5.1380 hn        1 MOL      0.334885
     16 H5         -0.3220   -1.6180    2.3860 h1        1 MOL      0.098417
     17 H6          2.1640   -2.7820    3.6190 hc        1 MOL      0.036830
     18 H7          1.6600   -1.0350    3.5520 hc        1 MOL      0.036830
     19 N2         -0.3960   -3.8050    1.0050 n         1 MOL     -0.363416
     20 C7         -0.8310   -5.0660    0.3660 c3        1 MOL      0.016616
     21 C8          0.3420   -5.7520   -0.4120 c         1 MOL      0.481270
     22 O5          0.3740   -6.9490   -0.3570 o         1 MOL     -0.550542
     23 C9         -2.0310   -4.7390   -0.5030 c3        1 MOL     -0.234073
     24 C10        -2.5310   -5.9810   -1.2980 c3        1 MOL     -0.021150
     25 C11        -3.8670   -5.6670   -1.9250 c3        1 MOL     -0.189026
     26 C12        -5.0170   -5.8910   -0.8670 c3        1 MOL      0.067242
     27 N3         -6.3370   -5.5300   -1.4010 n4        1 MOL     -0.382815
     28 H8         -0.6080   -2.9120    0.5900 hn        1 MOL      0.191585
     29 H9         -1.1260   -5.7280    1.1800 h1        1 MOL      0.089861
     30 H10        -1.7210   -4.0380   -1.2770 hc        1 MOL      0.164746
     31 H11        -2.8300   -4.3280    0.1000 hc        1 MOL      0.164746
     32 H12        -2.6310   -6.7760   -0.5610 hc        1 MOL      0.058747
     33 H13        -1.7990   -6.2310   -2.0660 hc        1 MOL      0.058747
     34 H14        -3.9580   -6.2910   -2.8120 hc        1 MOL      0.071316
     35 H15        -3.8740   -4.6310   -2.2700 hc        1 MOL      0.071316
     36 H16        -4.8200   -5.3560    0.0660 hx        1 MOL      0.084124
     37 H17        -4.9910   -6.9610   -0.6770 hx        1 MOL      0.084124
     38 H18        -7.0940   -5.7190   -0.7490 hn        1 MOL      0.336353
     39 H19        -6.3160   -4.5390   -1.5970 hn        1 MOL      0.336353
     40 H20        -6.5710   -6.0270   -2.2430 hn        1 MOL      0.336353
     41 N4          1.2360   -4.9680   -1.0860 n         1 MOL     -0.113593
     42 C13         2.3620   -5.3730   -1.8350 c3        1 MOL      0.074707
     43 C14         3.7160   -5.0500   -1.1690 c         1 MOL      0.468613
     44 O6          4.7610   -5.4860   -1.5900 o         1 MOL     -0.534454
     45 C15         2.3360   -4.5620   -3.1380 c3        1 MOL     -0.238724
     46 C16         2.0480   -3.1290   -2.8880 c         1 MOL      0.870912
     47 O7          0.8790   -2.7270   -2.9000 o         1 MOL     -0.747109
     48 O8          2.9570   -2.3610   -2.7610 o         1 MOL     -0.747109
     49 H21         1.0890   -3.9740   -1.0400 hn        1 MOL     -0.076066
     50 H22         2.3940   -6.4450   -2.0140 h1        1 MOL      0.076634
     51 H23         1.5180   -4.9230   -3.7580 hc        1 MOL      0.048535
     52 H24         3.3240   -4.7740   -3.5560 hc        1 MOL      0.048535
     53 N5          3.7390   -4.2550   -0.0750 n         1 MOL     -0.228139
     54 C17         4.8960   -4.0990    0.8310 c3        1 MOL     -0.249159
     55 C18         5.8780   -2.9670    0.5650 c         1 MOL      0.637930
     56 O9          6.9150   -2.8240    1.1610 o         1 MOL     -0.619555
     57 H25         2.8880   -3.7630    0.1330 hn        1 MOL      0.184262
     58 H26         5.4910   -5.0130    0.8530 h1        1 MOL      0.123196
     59 H27         4.4780   -3.9550    1.8260 h1        1 MOL      0.123196
     60 N6          5.5550   -2.2500   -0.4560 n         1 MOL     -0.297913
     61 C19         6.3860   -1.1740   -0.9500 c3        1 MOL      0.061727
     62 C20         6.5640    0.0830   -0.0480 c         1 MOL      0.216722
     63 O10         7.1200    1.1090   -0.5360 o         1 MOL     -0.434428
     64 C21         6.1040   -0.7190   -2.3760 c3        1 MOL     -0.396783
     65 C22         5.0420    0.2890   -2.4760 c         1 MOL      0.686969
     66 N7          5.4140    1.2940   -3.2550 n         1 MOL     -0.765472
     67 O11         3.9710    0.3410   -1.8380 o         1 MOL     -0.567088
     68 H28         4.6680   -2.4660   -0.8960 hn        1 MOL      0.213514
     69 H29         7.3600   -1.6690   -0.9980 h1        1 MOL      0.136884
     70 H30         5.7050   -1.6000   -2.8750 hc        1 MOL      0.133501
     71 H31         7.0010   -0.3100   -2.8310 hc        1 MOL      0.133501
     72 H32         6.4000    1.2540   -3.4630 hn        1 MOL      0.370406
     73 H33         4.8570    2.0740   -3.5610 hn        1 MOL      0.370406
     74 N8          6.1150    0.0790    1.2350 n         1 MOL     -0.070418
     75 C23         6.4530    1.1860    2.1430 c3        1 MOL     -0.396218
     76 C24         5.4680    2.3570    1.9030 c         1 MOL      0.681777
     77 O12         5.6890    3.3860    2.5160 o         1 MOL     -0.550032
     78 H34         5.5010   -0.6700    1.5400 hn        1 MOL      0.310684
     79 H35         7.4880    1.4170    1.9080 h1        1 MOL      0.159930
     80 H36         6.3600    0.8980    3.1940 h1        1 MOL      0.159930
     81 N9          4.3030    2.1300    1.2150 n         1 MOL     -0.435532
     82 C25         3.1770    3.1190    1.0120 c3        1 MOL      0.243148
     83 C26         1.7990    2.3520    0.9340 c         1 MOL      0.424496
     84 O13         1.7930    1.1590    0.5190 o         1 MOL     -0.577766
     85 C27         3.3660    3.9300   -0.3050 c3        1 MOL     -0.067067
     86 C28         4.5790    4.9450   -0.2800 ca        1 MOL      0.043661
     87 C29         5.7950    4.5630   -0.7860 ca        1 MOL     -0.133275
     88 C30         4.3120    6.2840    0.0590 ca        1 MOL     -0.133275
     89 C31         6.8650    5.5310   -0.8740 ca        1 MOL     -0.295562
     90 C32         5.3480    7.2540   -0.0980 ca        1 MOL     -0.295562
     91 C33         6.6550    6.8870   -0.5310 ca        1 MOL      0.368124
     92 O14         7.6900    7.7720   -0.6710 oh        1 MOL     -0.489726
     93 H37         4.0660    1.2280    0.8310 hn        1 MOL      0.245509
     94 H38         3.1770    3.8460    1.8160 h1        1 MOL     -0.000015
     95 H39         2.4280    4.4260   -0.5650 hc        1 MOL      0.010749
     96 H40         3.5250    3.3170   -1.1820 hc        1 MOL      0.010749
     97 H41         6.0370    3.5410   -1.0620 ha        1 MOL      0.117403
     98 H42         3.3480    6.6390    0.3780 ha        1 MOL      0.117403
     99 H43         7.8510    5.1670   -1.1220 ha        1 MOL      0.149992
    100 H44         5.2360    8.3040    0.1370 ha        1 MOL      0.149992
    101 H45         7.5200    8.6680   -0.3630 ho        1 MOL      0.359457
    102 N10         0.7160    3.1000    1.2560 n         1 MOL     -0.449241
    103 C34        -0.6450    2.7030    1.3480 c3        1 MOL     -0.068390
    104 C35        -1.5630    3.6720    0.6070 c         1 MOL      0.596253
    105 O15        -1.6720    4.7930    1.0310 o         1 MOL     -0.546708
    106 C36        -1.0340    2.6700    2.8730 c3        1 MOL      0.008864
    107 C37        -0.1160    1.5840    3.5370 c3        1 MOL      0.379462
    108 C38        -2.4860    2.1350    3.0380 c3        1 MOL     -0.166943
    109 C39        -0.3840    1.3540    5.0150 c3        1 MOL     -0.100052
    110 H46         0.8310    4.0770    1.4690 hn        1 MOL      0.306357
    111 H47        -0.8390    1.7190    0.9340 h1        1 MOL      0.130631
    112 H48        -0.8330    3.5920    3.4130 hc        1 MOL      0.014192
    113 H49         0.8930    1.9760    3.5550 hc        1 MOL     -0.084112
    114 H50        -0.1340    0.6460    2.9790 hc        1 MOL     -0.084112
    115 H51        -3.1910    2.5900    2.3540 hc        1 MOL      0.024863
    116 H52        -2.4520    1.0510    2.9390 hc        1 MOL      0.024863
    117 H53        -2.8970    2.3730    4.0190 hc        1 MOL      0.024863
    118 H54         0.3860    0.6750    5.3640 hc        1 MOL      0.001560
    119 H55        -0.3080    2.2830    5.5870 hc        1 MOL      0.001560
    120 H56        -1.3300    0.8630    5.2370 hc        1 MOL      0.001560
    121 N11        -2.2040    3.2160   -0.4740 n         1 MOL     -0.541539
    122 C40        -3.2340    3.9070   -1.2200 c3        1 MOL      0.088656
    123 C41        -4.5830    3.8890   -0.5360 c         1 MOL      0.410671
    124 O16        -4.8280    3.2060    0.4670 o         1 MOL     -0.324243
    125 C42        -3.3530    3.3700   -2.6880 c3        1 MOL     -0.264633
    126 O17        -4.1280    2.1970   -2.7190 oh        1 MOL     -0.501969
    127 H57        -2.0080    2.2410   -0.6750 hn        1 MOL      0.458264
    128 H58        -2.9000    4.9340   -1.3620 h1        1 MOL      0.074367
    129 H59        -2.3770    3.1190   -3.1080 h1        1 MOL      0.139947
    130 H60        -3.8020    4.2080   -3.2220 h1        1 MOL      0.139947
    131 H61        -3.6110    1.5630   -3.2180 ho        1 MOL      0.404998
    132 N12        -5.5190    4.6460   -1.0680 n         1 MOL     -0.458973
    133 C43        -6.9340    4.5890   -0.6590 c3        1 MOL      0.159794
    134 C44        -7.5620    3.2280   -0.9740 c         1 MOL      0.339228
    135 O18        -8.5130    2.7830   -0.2580 o         1 MOL     -0.491653
    136 C45        -7.8700    5.5750   -1.3060 c3        1 MOL     -0.253677
    137 H62        -5.3000    5.3010   -1.8070 hn        1 MOL      0.300623
    138 H63        -7.0790    4.5470    0.4280 h1        1 MOL      0.071481
    139 H64        -8.8510    5.6540   -0.8390 hc        1 MOL      0.085137
    140 H65        -7.5490    6.6130   -1.2200 hc        1 MOL      0.085137
    141 H66        -7.9840    5.2570   -2.3400 hc        1 MOL      0.085137
    142 N13        -7.0430    2.5080   -2.0260 n         1 MOL     -0.215373
    143 C46        -7.4120    1.1280   -2.2870 c3        1 MOL     -0.001032
    144 C47        -6.9080    0.0960   -1.2850 c         1 MOL      0.406099
    145 O19        -7.4810   -1.0080   -1.1470 o         1 MOL     -0.555690
    146 C48        -7.0750    0.8620   -3.7230 c3        1 MOL     -0.195744
    147 H67        -6.5580    2.9480   -2.7980 hn        1 MOL      0.252606
    148 H68        -8.5010    1.1100   -2.2200 h1        1 MOL      0.093929
    149 H69        -6.0430    0.5330   -3.6860 hc        1 MOL      0.056495
    150 H70        -7.7200    0.1540   -4.2350 hc        1 MOL      0.056495
    151 H71        -7.1560    1.7840   -4.3060 hc        1 MOL      0.056495
    152 N14        -5.7910    0.4020   -0.5910 n         1 MOL      0.029576
    153 C49        -5.2340   -0.4360    0.4400 c3        1 MOL     -0.137443
    154 C50        -5.9270   -0.0920    1.7810 c         1 MOL      0.476473
    155 O20        -6.4450   -1.0150    2.4060 o         1 MOL     -0.543831
    156 C51        -3.7080   -0.2740    0.5220 c3        1 MOL     -0.153758
    157 C52        -3.0290   -0.9300   -0.6690 c3        1 MOL      0.127880
    158 C53        -1.5820   -0.5220   -0.7870 c         1 MOL      0.658607
    159 O21        -0.7330   -1.4450   -0.6140 o         1 MOL     -0.733090
    160 O22        -1.2780    0.5690   -1.3050 o         1 MOL     -0.733090
    161 H72        -5.3050    1.2410   -0.8660 hn        1 MOL      0.049282
    162 H73        -5.5410   -1.4530    0.2200 h1        1 MOL      0.078071
    163 H74        -3.3050   -0.7930    1.3940 hc        1 MOL      0.092994
    164 H75        -3.4130    0.7780    0.4400 hc        1 MOL      0.092994
    165 H76        -3.5540   -0.8810   -1.6220 hc        1 MOL     -0.069826
    166 H77        -2.9870   -2.0060   -0.4900 hc        1 MOL     -0.069826
    167 N15        -6.1330    1.1810    2.1270 n         1 MOL     -0.145333
    168 C54        -6.9650    1.5920    3.3140 c3        1 MOL     -0.328351
    169 H78        -6.7940    2.6470    3.5290 h1        1 MOL      0.133784
    170 H79        -8.0200    1.4330    3.0910 h1        1 MOL      0.133784
    171 H80        -6.6830    0.9940    4.1810 h1        1 MOL      0.133784
    172 H81        -5.7190    1.8380    1.4860 hn        1 MOL      0.138104
    173 Ca1         1.5260   -0.5450   -1.6140 Ca        1 MOL      1.753739
    174 O23         1.2660   -0.3420   -4.3380 oh        1 MOL     -0.826692
    175 H82         0.7780    0.2230   -4.9380 ho        1 MOL      0.400719
    176 H83         1.1490   -1.2230   -4.6850 ho        1 MOL      0.400719
    177 O24         1.0360    1.8620   -2.4840 oh        1 MOL     -0.826692
    178 H84         1.6330    2.2350   -3.1380 ho        1 MOL      0.400719
    179 H85         0.3010    2.4720   -2.4480 ho        1 MOL      0.400719
@<TRIPOS>BOND
     1    1    2 1   
     2    1    4 1   
     3    1    5 1   
     4    1    6 1   
     5    2    3 2   
     6    2    7 1   
     7    7    8 1   
     8    7   15 1   
     9    8    9 1   
    10    8   11 1   
    11    8   16 1   
    12    9   10 2   
    13    9   19 1   
    14   11   12 1   
    15   11   17 1   
    16   11   18 1   
    17   12   13 1   
    18   12   14 1   
    19   19   20 1   
    20   19   28 1   
    21   20   21 1   
    22   20   23 1   
    23   20   29 1   
    24   21   22 2   
    25   21   41 1   
    26   23   24 1   
    27   23   30 1   
    28   23   31 1   
    29   24   25 1   
    30   24   32 1   
    31   24   33 1   
    32   25   26 1   
    33   25   34 1   
    34   25   35 1   
    35   26   27 1   
    36   26   36 1   
    37   26   37 1   
    38   27   38 1   
    39   27   39 1   
    40   27   40 1   
    41   41   42 1   
    42   41   49 1   
    43   42   43 1   
    44   42   45 1   
    45   42   50 1   
    46   43   44 2   
    47   43   53 1   
    48   45   46 1   
    49   45   51 1   
    50   45   52 1   
    51   46   47 1   
    52   46   48 1   
    53   53   54 1   
    54   53   57 1   
    55   54   55 1   
    56   54   58 1   
    57   54   59 1   
    58   55   56 2   
    59   55   60 1   
    60   60   61 1   
    61   60   68 1   
    62   61   62 1   
    63   61   64 1   
    64   61   69 1   
    65   62   63 2   
    66   62   74 1   
    67   64   65 1   
    68   64   70 1   
    69   64   71 1   
    70   65   66 1   
    71   65   67 2   
    72   66   72 1   
    73   66   73 1   
    74   74   75 1   
    75   74   78 1   
    76   75   76 1   
    77   75   79 1   
    78   75   80 1   
    79   76   77 2   
    80   76   81 1   
    81   81   82 1   
    82   81   93 1   
    83   82   83 1   
    84   82   85 1   
    85   82   94 1   
    86   83   84 2   
    87   83  102 1   
    88   85   86 1   
    89   85   95 1   
    90   85   96 1   
    91   86   87 ar  
    92   86   88 ar  
    93   87   89 ar  
    94   87   97 1   
    95   88   90 ar  
    96   88   98 1   
    97   89   91 ar  
    98   89   99 1   
    99   90   91 ar  
   100   90  100 1   
   101   91   92 1   
   102   92  101 1   
   103  102  103 1   
   104  102  110 1   
   105  103  104 1   
   106  103  106 1   
   107  103  111 1   
   108  104  105 2   
   109  104  121 1   
   110  106  107 1   
   111  106  108 1   
   112  106  112 1   
   113  107  109 1   
   114  107  113 1   
   115  107  114 1   
   116  108  115 1   
   117  108  116 1   
   118  108  117 1   
   119  109  118 1   
   120  109  119 1   
   121  109  120 1   
   122  121  122 1   
   123  121  127 1   
   124  122  123 1   
   125  122  125 1   
   126  122  128 1   
   127  123  124 2   
   128  123  132 1   
   129  125  126 1   
   130  125  129 1   
   131  125  130 1   
   132  126  131 1   
   133  132  133 1   
   134  132  137 1   
   135  133  134 1   
   136  133  136 1   
   137  133  138 1   
   138  134  135 2   
   139  134  142 1   
   140  136  139 1   
   141  136  140 1   
   142  136  141 1   
   143  142  143 1   
   144  142  147 1   
   145  143  144 1   
   146  143  146 1   
   147  143  148 1   
   148  144  145 2   
   149  144  152 1   
   150  146  149 1   
   151  146  150 1   
   152  146  151 1   
   153  152  153 1   
   154  152  161 1   
   155  153  154 1   
   156  153  156 1   
   157  153  162 1   
   158  154  155 2   
   159  154  167 1   
   160  156  157 1   
   161  156  163 1   
   162  156  164 1   
   163  157  158 1   
   164  157  165 1   
   165  157  166 1   
   166  158  159 1   
   167  158  160 1   
   168  167  168 1   
   169  167  172 1   
   170  168  169 1   
   171  168  170 1   
   172  168  171 1   
   173  174  175 1   
   174  174  176 1   
   175  177  178 1   
   176  177  179 1   
@<TRIPOS>SUBSTRUCTURE
     1 MOL         1 TEMP              0 ****  ****    0 ROOT
