@<TRIPOS>MOLECULE
MOL
  186   183     1     0     0
SMALL
resp


@<TRIPOS>ATOM
      1 C1          0.9920   -2.7310    6.0540 c3        1 MOL     -0.279127
      2 C2          1.2590   -2.4200    4.6210 c         1 MOL      0.793855
      3 O1          0.4430   -2.8400    3.8170 o         1 MOL     -0.583975
      4 H1          0.2650   -2.0210    6.4490 hc        1 MOL      0.056519
      5 H2          0.5950   -3.7420    6.1380 hc        1 MOL      0.056519
      6 H3          1.9190   -2.6550    6.6220 hc        1 MOL      0.056519
      7 N1          2.5000   -1.8890    4.2750 n         1 MOL     -0.668151
      8 C3          2.9540   -1.8800    2.8910 c3        1 MOL      0.356330
      9 C4          3.2460   -3.3340    2.4470 c         1 MOL      0.487392
     10 O2          3.9220   -4.1420    3.1170 o         1 MOL     -0.606340
     11 C5          4.1960   -0.9780    2.9540 c3        1 MOL     -0.431042
     12 C6          4.8700   -0.8380    1.6090 c         1 MOL      0.840713
     13 O3          6.0690   -0.5520    1.5490 o         1 MOL     -0.665708
     14 O4          4.2340   -1.0270    0.5400 o         1 MOL     -0.665708
     15 H4          3.0630   -1.3850    4.9530 hn        1 MOL      0.314480
     16 H5          2.1340   -1.4720    2.2880 h1        1 MOL     -0.012087
     17 H6          4.9990   -1.4630    3.5060 hc        1 MOL      0.088944
     18 H7          3.8560   -0.0000    3.3110 hc        1 MOL      0.088944
     19 N2          2.5870   -3.7990    1.3610 n         1 MOL      0.044176
     20 C7          2.7110   -5.0620    0.6330 c3        1 MOL     -0.393524
     21 C8          3.2550   -5.0170   -0.7720 c         1 MOL      0.621747
     22 O5          3.2440   -6.0660   -1.3480 o         1 MOL     -0.550515
     23 C9          1.4020   -5.8350    0.7510 c3        1 MOL      0.530147
     24 C10         0.2640   -5.0840    0.0550 c3        1 MOL     -0.195111
     25 C11         1.0900   -6.2490    2.2040 c3        1 MOL     -0.308121
     26 C12        -1.0380   -5.8390   -0.0980 c3        1 MOL     -0.342953
     27 H8          2.0980   -3.0840    0.8370 hn        1 MOL     -0.039514
     28 H9          3.4500   -5.6160    1.2160 h1        1 MOL      0.114956
     29 H10         1.5910   -6.8240    0.3260 hc        1 MOL     -0.098100
     30 H11         0.6460   -4.8940   -0.9510 hc        1 MOL      0.127851
     31 H12         0.0610   -4.1500    0.5700 hc        1 MOL      0.127851
     32 H13         1.8800   -6.8790    2.6050 hc        1 MOL      0.051398
     33 H14         1.0100   -5.3370    2.8090 hc        1 MOL      0.051398
     34 H15         0.1860   -6.8510    2.1820 hc        1 MOL      0.051398
     35 H16        -1.5830   -5.5640   -0.9970 hc        1 MOL      0.081853
     36 H17        -0.8220   -6.9030   -0.1930 hc        1 MOL      0.081853
     37 H18        -1.6020   -5.6630    0.8170 hc        1 MOL      0.081853
     38 N3          3.8590   -3.8760   -1.3290 n         1 MOL     -0.398062
     39 C13         4.6240   -3.9120   -2.5520 c3        1 MOL      0.068691
     40 C14         6.0150   -3.2270   -2.5140 c         1 MOL      0.447484
     41 O6          6.8500   -3.5520   -3.3710 o         1 MOL     -0.563011
     42 C15         3.8140   -3.4380   -3.7660 c3        1 MOL     -0.227082
     43 C16         3.1500   -2.0360   -3.6310 c         1 MOL      0.872651
     44 O7          3.5260   -1.2320   -2.7540 o         1 MOL     -0.751655
     45 O8          2.2980   -1.6860   -4.4990 o         1 MOL     -0.751655
     46 H19         3.8410   -3.0390   -0.7610 hn        1 MOL      0.155270
     47 H20         4.8210   -4.9850   -2.6600 h1        1 MOL      0.059671
     48 H21         3.1030   -4.2470   -3.9710 hc        1 MOL      0.045804
     49 H22         4.4350   -3.4150   -4.6650 hc        1 MOL      0.045804
     50 N4          6.1960   -2.5080   -1.4320 n         1 MOL     -0.127392
     51 C17         7.5100   -2.0440   -0.9760 c3        1 MOL     -0.069093
     52 C18         7.9110   -0.6780   -1.4380 c         1 MOL      0.587967
     53 O9          8.9520   -0.5340   -2.1340 o         1 MOL     -0.615145
     54 H23         5.4470   -2.4390   -0.7600 hn        1 MOL      0.128051
     55 H24         8.3390   -2.6850   -1.2590 h1        1 MOL      0.045497
     56 H25         7.5870   -2.2100    0.1040 h1        1 MOL      0.045497
     57 N5          7.1950    0.3340   -1.0350 n         1 MOL     -0.217294
     58 C19         7.4650    1.7450   -1.3860 c3        1 MOL     -0.022222
     59 C20         7.6440    2.7650   -0.2030 c         1 MOL      0.416595
     60 O10         8.0280    3.8780   -0.4050 o         1 MOL     -0.505788
     61 C21         6.4250    2.2180   -2.3330 c3        1 MOL     -0.052757
     62 C22         5.0130    1.9720   -1.8750 c         1 MOL      0.548597
     63 O11         4.8200    1.8050   -0.6300 o         1 MOL     -0.650308
     64 O12         4.1190    1.8550   -2.7590 o         1 MOL     -0.650308
     65 H26         6.4390    0.3120   -0.3690 hn        1 MOL      0.026032
     66 H27         8.3660    1.7880   -1.9970 h1        1 MOL      0.077963
     67 H28         6.4260    1.5780   -3.2190 hc        1 MOL      0.034435
     68 H29         6.6790    3.2290   -2.6440 hc        1 MOL      0.034435
     69 N6          7.2880    2.3620    1.0230 n         1 MOL     -0.300412
     70 C23         7.1300    3.2960    2.1570 c3        1 MOL     -0.038876
     71 C24         5.8070    4.0380    2.2960 c         1 MOL      0.525374
     72 O13         5.7690    5.2150    2.6740 o         1 MOL     -0.592345
     73 H30         7.0270    1.3930    1.1390 hn        1 MOL      0.225951
     74 H31         7.9340    4.0300    2.2280 h1        1 MOL      0.057781
     75 H32         7.2200    2.7050    3.0780 h1        1 MOL      0.057781
     76 N7          4.7570    3.4440    1.7480 n         1 MOL     -0.515183
     77 C25         3.4330    4.0520    1.4880 c3        1 MOL      0.397074
     78 C26         2.3260    2.9900    1.4900 c         1 MOL      0.399098
     79 O14         2.5950    1.7970    1.3250 o         1 MOL     -0.660716
     80 C27         3.4320    4.6700    0.1020 c3        1 MOL     -0.070736
     81 C28         2.2890    5.7090   -0.1920 c3        1 MOL     -0.016451
     82 C29         2.2160    6.3490   -1.5640 c         1 MOL      0.624053
     83 N8          3.0250    7.2600   -1.9270 n         1 MOL     -0.773456
     84 O15         1.3570    5.9230   -2.3120 o         1 MOL     -0.578229
     85 H33         4.9320    2.6620    1.1380 hn        1 MOL      0.360097
     86 H34         3.2370    4.7820    2.2690 h1        1 MOL     -0.029685
     87 H35         3.3370    3.8820   -0.6410 hc        1 MOL      0.050655
     88 H36         4.3720    5.2020   -0.0320 hc        1 MOL      0.050655
     89 H37         2.4440    6.5760    0.4450 hc        1 MOL     -0.024830
     90 H38         1.3210    5.2950    0.0810 hc        1 MOL     -0.024830
     91 H39         3.8340    7.5350   -1.3980 hn        1 MOL      0.362895
     92 H40         2.9630    7.4590   -2.9160 hn        1 MOL      0.362895
     93 N9          1.0670    3.3820    1.8500 n         1 MOL     -0.436535
     94 C30        -0.0500    2.4320    2.0990 c3        1 MOL      0.066755
     95 C31        -1.2880    2.9170    1.3190 c         1 MOL      0.456801
     96 O16        -1.9030    3.9220    1.6290 o         1 MOL     -0.543653
     97 C32        -0.3310    2.4260    3.6400 c3        1 MOL      0.257128
     98 C33        -1.7510    1.9090    4.0620 c3        1 MOL     -0.415311
     99 C34         0.6610    1.4300    4.2800 c3        1 MOL     -0.415311
    100 H41         0.9620    4.3550    2.1080 hn        1 MOL      0.266405
    101 H42         0.2780    1.4440    1.7940 h1        1 MOL      0.173270
    102 H43        -0.2580    3.4670    3.9600 hc        1 MOL     -0.022001
    103 H44        -1.7810    2.1020    5.1280 hc        1 MOL      0.095288
    104 H45        -2.5050    2.2850    3.3740 hc        1 MOL      0.095288
    105 H46        -1.8170    0.8150    4.1250 hc        1 MOL      0.095288
    106 H47         0.3950    0.4380    3.9240 hc        1 MOL      0.095288
    107 H48         1.6680    1.7940    4.0440 hc        1 MOL      0.095288
    108 H49         0.5460    1.4220    5.3660 hc        1 MOL      0.095288
    109 N10        -1.6750    2.1360    0.2600 n         1 MOL     -0.206594
    110 C35        -2.8250    2.3900   -0.5540 c3        1 MOL      0.031339
    111 C36        -4.0750    1.9280    0.1600 c         1 MOL      0.526732
    112 O17        -3.9970    0.9340    0.9040 o         1 MOL     -0.389830
    113 C37        -2.6530    1.6510   -1.8650 c3        1 MOL     -0.255391
    114 C38        -3.5680    2.2570   -2.9060 c         1 MOL      0.663486
    115 N11        -3.1230    3.2650   -3.5940 n         1 MOL     -0.743449
    116 O18        -4.6650    1.7920   -3.1240 o         1 MOL     -0.538905
    117 H50        -1.1030    1.3390    0.0080 hn        1 MOL      0.159445
    118 H51        -2.9280    3.4720   -0.6990 h1        1 MOL      0.011814
    119 H52        -2.8580    0.5970   -1.6610 hc        1 MOL      0.101286
    120 H53        -1.6050    1.7520   -2.1180 hc        1 MOL      0.101286
    121 H54        -2.2410    3.6650   -3.3130 hn        1 MOL      0.358331
    122 H55        -3.8520    3.7250   -4.1180 hn        1 MOL      0.358331
    123 N12        -5.2310    2.4140   -0.2220 n         1 MOL     -0.509401
    124 C39        -6.5500    1.8460    0.2810 c3        1 MOL      0.076725
    125 C40        -6.7080    0.3740   -0.1220 c         1 MOL      0.600647
    126 O19        -7.1510   -0.4630    0.6800 o         1 MOL     -0.525754
    127 C41        -7.7550    2.6700   -0.2030 c3        1 MOL     -0.156225
    128 C42        -9.1680    2.2430    0.2770 ca        1 MOL     -0.188409
    129 C43        -9.4270    2.1960    1.6420 ca        1 MOL      0.038910
    130 C44       -10.0890    1.7340   -0.6550 ca        1 MOL      0.038910
    131 C45       -10.6140    1.6280    2.0570 ca        1 MOL     -0.460257
    132 C46       -11.3950    1.4150   -0.2470 ca        1 MOL     -0.460257
    133 C47       -11.5810    1.2090    1.1410 ca        1 MOL      0.601640
    134 O20       -12.7720    0.6830    1.4960 oh        1 MOL     -0.625789
    135 H56        -5.2810    2.9840   -1.0490 hn        1 MOL      0.262984
    136 H57        -6.4750    1.7730    1.3640 h1        1 MOL      0.086765
    137 H58        -7.8390    2.5510   -1.2840 hc        1 MOL      0.078968
    138 H59        -7.6730    3.7270    0.0330 hc        1 MOL      0.078968
    139 H60        -8.6670    2.4760    2.3570 ha        1 MOL      0.113167
    140 H61        -9.8490    1.7420   -1.7070 ha        1 MOL      0.113167
    141 H62       -10.8800    1.5400    3.0970 ha        1 MOL      0.177975
    142 H63       -12.0970    1.1680   -1.0290 ha        1 MOL      0.177975
    143 H64       -13.3320    0.3790    0.7930 ho        1 MOL      0.418943
    144 N13        -6.1860   -0.0320   -1.2410 n         1 MOL     -0.342556
    145 C48        -6.0800   -1.4870   -1.5760 c3        1 MOL     -0.117886
    146 C49        -5.2530   -2.3210   -0.5630 c         1 MOL      0.252483
    147 O21        -5.5800   -3.5150   -0.3770 o         1 MOL     -0.497241
    148 C50        -5.5220   -1.6260   -3.0370 c3        1 MOL      0.109578
    149 C51        -6.5410   -1.0920   -4.1050 c3        1 MOL     -0.120557
    150 C52        -7.8670   -1.8960   -4.2640 c         1 MOL      0.667409
    151 O22        -7.9370   -2.9810   -3.6350 o         1 MOL     -0.725695
    152 O23        -8.8650   -1.4460   -4.8780 o         1 MOL     -0.725695
    153 H65        -5.8050    0.6570   -1.8630 hn        1 MOL      0.263531
    154 H66        -7.0940   -1.8950   -1.6230 h1        1 MOL      0.172697
    155 H67        -5.3120   -2.6720   -3.2920 hc        1 MOL      0.013027
    156 H68        -4.5940   -1.0880   -3.2060 hc        1 MOL      0.013027
    157 H69        -6.0190   -1.0560   -5.0670 hc        1 MOL     -0.028103
    158 H70        -6.8170   -0.0600   -3.9320 hc        1 MOL     -0.028103
    159 N14        -4.2820   -1.7420    0.0140 n         1 MOL      0.038278
    160 C53        -3.4350   -2.3500    0.9900 c3        1 MOL     -0.056959
    161 C54        -4.1190   -2.2630    2.3430 c         1 MOL      0.441844
    162 O24        -3.9860   -3.1720    3.1550 o         1 MOL     -0.563611
    163 C55        -2.0980   -1.7590    1.0970 c3        1 MOL      0.427453
    164 C56        -1.4570   -1.8940   -0.2660 c3        1 MOL     -0.021761
    165 C57        -0.0630   -1.3270   -0.3930 c         1 MOL      0.779530
    166 O25         0.9850   -2.0340   -0.5290 o         1 MOL     -0.766155
    167 O26         0.1650   -0.1080   -0.2410 o         1 MOL     -0.766155
    168 H71        -4.2980   -0.7380   -0.0380 hn        1 MOL     -0.059829
    169 H72        -3.3840   -3.4010    0.7050 h1        1 MOL      0.080237
    170 H73        -1.4800   -2.2730    1.8360 hc        1 MOL     -0.115282
    171 H74        -2.1170   -0.7300    1.4640 hc        1 MOL     -0.115282
    172 H75        -2.0020   -1.4210   -1.0770 hc        1 MOL     -0.050911
    173 H76        -1.3690   -2.9740   -0.4460 hc        1 MOL     -0.050911
    174 N15        -4.9340   -1.2100    2.5950 n         1 MOL     -0.058529
    175 C58        -5.7220   -1.0530    3.7910 c3        1 MOL     -0.290109
    176 H77        -5.2560   -0.3100    4.4380 h1        1 MOL      0.093317
    177 H78        -6.7260   -0.7220    3.5250 h1        1 MOL      0.093317
    178 H79        -5.7800   -2.0060    4.3170 h1        1 MOL      0.093317
    179 H80        -4.9520   -0.4200    1.9620 hn        1 MOL      0.098459
    180 Ca1         2.6710    0.2700   -0.9160 Ca        1 MOL      1.778271
    181 O27         0.9290    0.2010   -3.4190 oh        1 MOL     -0.869980
    182 H81         0.4840    0.6780   -4.1190 ho        1 MOL      0.398688
    183 H82         1.3150   -0.5590   -3.8480 ho        1 MOL      0.398688
    184 O28         1.2490    2.6270   -1.4320 oh        1 MOL     -0.869980
    185 H83         0.2960    2.5810   -1.4610 ho        1 MOL      0.398688
    186 H84         1.4700    3.2790   -2.0980 ho        1 MOL      0.398688
@<TRIPOS>BOND
     1    1    2 1   
     2    1    4 1   
     3    1    5 1   
     4    1    6 1   
     5    2    3 2   
     6    2    7 1   
     7    7    8 1   
     8    7   15 1   
     9    8    9 1   
    10    8   11 1   
    11    8   16 1   
    12    9   10 2   
    13    9   19 1   
    14   11   12 1   
    15   11   17 1   
    16   11   18 1   
    17   12   13 1   
    18   12   14 1   
    19   19   20 1   
    20   19   27 1   
    21   20   21 1   
    22   20   23 1   
    23   20   28 1   
    24   21   22 2   
    25   21   38 1   
    26   23   24 1   
    27   23   25 1   
    28   23   29 1   
    29   24   26 1   
    30   24   30 1   
    31   24   31 1   
    32   25   32 1   
    33   25   33 1   
    34   25   34 1   
    35   26   35 1   
    36   26   36 1   
    37   26   37 1   
    38   38   39 1   
    39   38   46 1   
    40   39   40 1   
    41   39   42 1   
    42   39   47 1   
    43   40   41 2   
    44   40   50 1   
    45   42   43 1   
    46   42   48 1   
    47   42   49 1   
    48   43   44 1   
    49   43   45 1   
    50   50   51 1   
    51   50   54 1   
    52   51   52 1   
    53   51   55 1   
    54   51   56 1   
    55   52   53 2   
    56   52   57 1   
    57   57   58 1   
    58   57   65 1   
    59   58   59 1   
    60   58   61 1   
    61   58   66 1   
    62   59   60 2   
    63   59   69 1   
    64   61   62 1   
    65   61   67 1   
    66   61   68 1   
    67   62   63 1   
    68   62   64 1   
    69   69   70 1   
    70   69   73 1   
    71   70   71 1   
    72   70   74 1   
    73   70   75 1   
    74   71   72 2   
    75   71   76 1   
    76   76   77 1   
    77   76   85 1   
    78   77   78 1   
    79   77   80 1   
    80   77   86 1   
    81   78   79 2   
    82   78   93 1   
    83   80   81 1   
    84   80   87 1   
    85   80   88 1   
    86   81   82 1   
    87   81   89 1   
    88   81   90 1   
    89   82   83 1   
    90   82   84 2   
    91   83   91 1   
    92   83   92 1   
    93   93   94 1   
    94   93  100 1   
    95   94   95 1   
    96   94   97 1   
    97   94  101 1   
    98   95   96 2   
    99   95  109 1   
   100   97   98 1   
   101   97   99 1   
   102   97  102 1   
   103   98  103 1   
   104   98  104 1   
   105   98  105 1   
   106   99  106 1   
   107   99  107 1   
   108   99  108 1   
   109  109  110 1   
   110  109  117 1   
   111  110  111 1   
   112  110  113 1   
   113  110  118 1   
   114  111  112 2   
   115  111  123 1   
   116  113  114 1   
   117  113  119 1   
   118  113  120 1   
   119  114  115 1   
   120  114  116 2   
   121  115  121 1   
   122  115  122 1   
   123  123  124 1   
   124  123  135 1   
   125  124  125 1   
   126  124  127 1   
   127  124  136 1   
   128  125  126 2   
   129  125  144 1   
   130  127  128 1   
   131  127  137 1   
   132  127  138 1   
   133  128  129 ar  
   134  128  130 ar  
   135  129  131 ar  
   136  129  139 1   
   137  130  132 ar  
   138  130  140 1   
   139  131  133 ar  
   140  131  141 1   
   141  132  133 ar  
   142  132  142 1   
   143  133  134 1   
   144  134  143 1   
   145  144  145 1   
   146  144  153 1   
   147  145  146 1   
   148  145  148 1   
   149  145  154 1   
   150  146  147 2   
   151  146  159 1   
   152  148  149 1   
   153  148  155 1   
   154  148  156 1   
   155  149  150 1   
   156  149  157 1   
   157  149  158 1   
   158  150  151 1   
   159  150  152 1   
   160  159  160 1   
   161  159  168 1   
   162  160  161 1   
   163  160  163 1   
   164  160  169 1   
   165  161  162 2   
   166  161  174 1   
   167  163  164 1   
   168  163  170 1   
   169  163  171 1   
   170  164  165 1   
   171  164  172 1   
   172  164  173 1   
   173  165  166 1   
   174  165  167 1   
   175  174  175 1   
   176  174  179 1   
   177  175  176 1   
   178  175  177 1   
   179  175  178 1   
   180  181  182 1   
   181  181  183 1   
   182  184  185 1   
   183  184  186 1   
@<TRIPOS>SUBSTRUCTURE
     1 MOL         1 TEMP              0 ****  ****    0 ROOT
