@<TRIPOS>MOLECULE
MOL
  175   173     1     0     0
SMALL
resp


@<TRIPOS>ATOM
      1 C1         -0.1760    4.4780    5.5550 c3        1 MOL     -0.294295
      2 C2         -0.6330    4.4900    4.1400 c         1 MOL      0.745080
      3 O1          0.2330    4.7320    3.2710 o         1 MOL     -0.565523
      4 H1         -0.5520    5.3650    6.0650 hc        1 MOL      0.064454
      5 H2         -0.5560    3.5860    6.0530 hc        1 MOL      0.064454
      6 H3          0.9140    4.4770    5.5860 hc        1 MOL      0.064454
      7 N1         -1.8860    4.2390    3.7970 n         1 MOL     -0.584201
      8 C3         -2.2400    3.6650    2.5440 c3        1 MOL     -0.105721
      9 C4         -2.3910    4.8140    1.5270 c         1 MOL      0.686191
     10 O2         -2.7240    5.9560    1.8840 o         1 MOL     -0.555687
     11 C5         -3.6730    3.0050    2.7190 c3        1 MOL     -0.107386
     12 C6         -4.3500    2.4530    1.4670 c         1 MOL      0.560216
     13 O3         -5.5800    2.5040    1.4170 o         1 MOL     -0.647859
     14 O4         -3.6690    1.7730    0.6360 o         1 MOL     -0.647859
     15 H4         -2.4420    3.8940    4.5680 hn        1 MOL      0.292275
     16 H5         -1.4020    2.9920    2.3370 h1        1 MOL      0.105943
     17 H6         -4.3350    3.7600    3.1390 hc        1 MOL      0.038504
     18 H7         -3.6920    2.1810    3.4390 hc        1 MOL      0.038504
     19 N2         -2.3540    4.4420    0.1830 n         1 MOL     -0.545150
     20 C7         -2.5670    5.3670   -0.9290 c3        1 MOL      0.195834
     21 C8         -3.4880    4.7800   -2.0790 c         1 MOL      0.670534
     22 O5         -3.6690    5.4620   -3.0440 o         1 MOL     -0.589326
     23 C9         -1.1670    5.8740   -1.4260 c3        1 MOL     -0.236221
     24 H8         -2.1040    3.5000   -0.0630 hn        1 MOL      0.394493
     25 H9         -3.1240    6.2390   -0.5890 h1        1 MOL      0.010304
     26 H10        -1.2020    6.4720   -2.3350 hc        1 MOL      0.056000
     27 H11        -0.7150    6.4050   -0.5820 hc        1 MOL      0.056000
     28 H12        -0.5980    4.9610   -1.5910 hc        1 MOL      0.056000
     29 N3         -4.1800    3.6430   -1.8550 n         1 MOL     -0.668117
     30 C10        -5.0360    3.0230   -2.9090 c3        1 MOL      0.247429
     31 C11        -6.2090    2.1870   -2.4920 c         1 MOL      0.364696
     32 O6         -6.9550    1.6950   -3.3540 o         1 MOL     -0.566704
     33 C12        -4.1330    2.1720   -3.8100 c3        1 MOL     -0.255765
     34 C13        -3.4170    1.0390   -3.0460 c         1 MOL      0.852338
     35 O7         -2.3810    0.5590   -3.5160 o         1 MOL     -0.736991
     36 O8         -3.8700    0.6330   -1.9710 o         1 MOL     -0.736991
     37 H13        -3.8310    3.0270   -1.1300 hn        1 MOL      0.268199
     38 H14        -5.4680    3.7790   -3.5770 h1        1 MOL      0.055653
     39 H15        -3.4040    2.8210   -4.2960 hc        1 MOL      0.049901
     40 H16        -4.7620    1.7220   -4.5710 hc        1 MOL      0.049901
     41 N4         -6.4370    1.9810   -1.2070 n         1 MOL     -0.253436
     42 C14        -7.5390    1.1350   -0.6600 c3        1 MOL     -0.165727
     43 C15        -7.3370   -0.4100   -0.7970 c         1 MOL      0.466193
     44 O9         -8.2800   -1.1390   -0.3940 o         1 MOL     -0.622523
     45 H17        -5.9350    2.6360   -0.6330 hn        1 MOL      0.258657
     46 H18        -8.4560    1.3730   -1.1950 h1        1 MOL      0.121110
     47 H19        -7.7770    1.3180    0.3930 h1        1 MOL      0.121110
     48 N5         -6.3350   -0.9730   -1.4830 n         1 MOL     -0.146044
     49 C16        -6.2200   -2.4240   -1.8860 c3        1 MOL      0.077796
     50 C17        -5.9990   -3.4580   -0.6700 c         1 MOL      0.366309
     51 O10        -5.7030   -4.6900   -0.8100 o         1 MOL     -0.490103
     52 C18        -5.0910   -2.4230   -2.8880 c3        1 MOL     -0.442962
     53 C19        -3.6810   -2.3880   -2.4440 c         1 MOL      0.761418
     54 N6         -2.7430   -2.4630   -3.2970 n         1 MOL     -0.642696
     55 O11        -3.4060   -2.2190   -1.2670 o         1 MOL     -0.714342
     56 H20        -5.6100   -0.3400   -1.7990 hn        1 MOL      0.173652
     57 H21        -7.1380   -2.5990   -2.4410 h1        1 MOL      0.106948
     58 H22        -5.2570   -1.5800   -3.5510 hc        1 MOL      0.122158
     59 H23        -5.0690   -3.4100   -3.3560 hc        1 MOL      0.122158
     60 H24        -3.0620   -2.3560   -4.2500 hn        1 MOL      0.327237
     61 H25        -1.7690   -2.2730   -3.0820 hn        1 MOL      0.327237
     62 N7         -6.1100   -2.9290    0.5480 n         1 MOL     -0.176604
     63 C20        -6.0650   -3.7280    1.7550 c3        1 MOL     -0.207158
     64 C21        -4.7080   -4.4480    2.0780 c         1 MOL      0.436178
     65 O12        -4.7240   -5.5100    2.7100 o         1 MOL     -0.555279
     66 H26        -6.1630   -1.9190    0.6470 hn        1 MOL      0.258788
     67 H27        -6.8240   -4.5040    1.6280 h1        1 MOL      0.117808
     68 H28        -6.3730   -3.1930    2.6580 h1        1 MOL      0.117808
     69 N8         -3.6580   -4.0210    1.3600 n         1 MOL      0.102133
     70 C22        -2.2940   -4.4370    1.4610 c3        1 MOL     -0.050249
     71 C23        -1.2730   -3.3180    1.4180 c         1 MOL      0.399174
     72 O13        -1.5150   -2.2070    0.9820 o         1 MOL     -0.399343
     73 C24        -1.9740   -5.4620    0.3610 c3        1 MOL      0.507058
     74 C25        -2.8810   -6.6840    0.3070 c3        1 MOL     -0.498896
     75 O14        -1.9720   -4.9040   -0.9700 oh        1 MOL     -0.659013
     76 H29        -3.7810   -3.2700    0.7010 hn        1 MOL     -0.202648
     77 H30        -2.2070   -4.8680    2.4600 h1        1 MOL      0.013100
     78 H31        -0.9730   -5.7830    0.6390 h1        1 MOL     -0.031454
     79 H32        -2.8080   -4.4250   -1.0440 ho        1 MOL      0.448310
     80 H33        -2.8820   -7.0880    1.3130 hc        1 MOL      0.118483
     81 H34        -3.8560   -6.3680   -0.0820 hc        1 MOL      0.118483
     82 H35        -2.5040   -7.4050   -0.4210 hc        1 MOL      0.118483
     83 N9         -0.0740   -3.6110    1.9370 n         1 MOL     -0.450481
     84 C26         1.0190   -2.6180    1.9380 c3        1 MOL     -0.144744
     85 C27         2.0010   -2.9260    0.7720 c         1 MOL      0.525436
     86 O15         2.7790   -3.8520    0.8520 o         1 MOL     -0.568767
     87 C28         1.7750   -2.5080    3.2950 c3        1 MOL      0.204742
     88 C29         0.8670   -2.7430    4.5690 c3        1 MOL      0.104691
     89 C30         2.5160   -1.1840    3.3850 c3        1 MOL      0.111432
     90 C31         1.7300   -2.4290    5.8410 c3        1 MOL     -0.013213
     91 H36         0.1250   -4.4670    2.4320 hn        1 MOL      0.283964
     92 H37         0.5500   -1.6590    1.7570 h1        1 MOL      0.345996
     93 H38         2.5980   -3.2220    3.2390 hc        1 MOL     -0.056737
     94 H39         0.6300   -3.8080    4.6900 hc        1 MOL     -0.068865
     95 H40        -0.0030   -2.1080    4.4120 hc        1 MOL     -0.068865
     96 H41         1.7350   -0.4290    3.4420 hc        1 MOL     -0.078873
     97 H42         3.0800   -1.2860    4.3190 hc        1 MOL     -0.078873
     98 H43         3.1800   -1.1050    2.5240 hc        1 MOL     -0.078873
     99 H44         2.5960   -3.0990    5.8530 hc        1 MOL     -0.003812
    100 H45         1.7900   -1.3580    6.0330 hc        1 MOL     -0.003812
    101 H46         1.1290   -2.6870    6.7040 hc        1 MOL     -0.003812
    102 N10         1.7470   -2.2150   -0.2840 n         1 MOL     -0.190523
    103 C32         2.7130   -1.8800   -1.3930 c3        1 MOL     -0.014772
    104 C33         4.0930   -1.4800   -0.8750 c         1 MOL      0.412982
    105 O16         4.2130   -0.8160    0.1650 o         1 MOL     -0.307340
    106 C34         2.1210   -0.7480   -2.2110 c3        1 MOL     -0.504054
    107 C35         0.7050   -1.0360   -2.6640 c         1 MOL      0.821056
    108 O17         0.6540   -1.4910   -3.8240 o         1 MOL     -0.649211
    109 O18        -0.2580   -0.7930   -1.8680 o         1 MOL     -0.649211
    110 H47         0.8200   -1.8660   -0.4980 hn        1 MOL      0.111862
    111 H48         2.7950   -2.7810   -2.0030 h1        1 MOL      0.074525
    112 H49         2.8060   -0.4650   -3.0000 hc        1 MOL      0.157238
    113 H50         2.0320    0.1110   -1.5450 hc        1 MOL      0.157238
    114 N11         5.1860   -1.9530   -1.4380 n         1 MOL     -0.543976
    115 C36         6.5620   -1.6950   -0.9920 c3        1 MOL      0.448490
    116 C37         6.7330   -0.2030   -0.8700 c         1 MOL      0.360502
    117 O19         7.2270    0.1530    0.1790 o         1 MOL     -0.499055
    118 C38         7.6860   -2.3690   -1.9010 c3        1 MOL     -0.366487
    119 C39         9.1400   -1.9180   -1.6180 ca        1 MOL      0.212537
    120 C40         9.7970   -1.1110   -2.5210 ca        1 MOL     -0.237835
    121 C41         9.7980   -2.3240   -0.4510 ca        1 MOL     -0.237835
    122 C42        11.1070   -0.5400   -2.1950 ca        1 MOL     -0.089372
    123 C43        11.0700   -1.8760   -0.1710 ca        1 MOL     -0.089372
    124 C44        11.6940   -0.9530   -1.0000 ca        1 MOL     -0.112889
    125 H51         5.0150   -2.7240   -2.0640 hn        1 MOL      0.282302
    126 H52         6.6710   -2.1500   -0.0010 h1        1 MOL      0.009693
    127 H53         7.5090   -2.1350   -2.9520 hc        1 MOL      0.094002
    128 H54         7.6570   -3.4430   -1.7450 hc        1 MOL      0.094002
    129 H55         9.2450   -0.7770   -3.3920 ha        1 MOL      0.141576
    130 H56         9.3630   -3.0330    0.2480 ha        1 MOL      0.141576
    131 H57        11.5190    0.2120   -2.8480 ha        1 MOL      0.111653
    132 H58        11.5550   -2.1720    0.7530 ha        1 MOL      0.111653
    133 H59        12.6310   -0.4910   -0.7230 ha        1 MOL      0.096852
    134 N12         6.2960    0.6400   -1.8070 n         1 MOL     -0.069087
    135 C45         6.4060    2.0780   -1.6850 c3        1 MOL     -0.019244
    136 C46         5.7060    2.7140   -0.4810 c         1 MOL      0.380714
    137 O20         6.1190    3.7620   -0.0330 o         1 MOL     -0.511703
    138 C47         6.0020    2.6970   -3.0280 c3        1 MOL     -0.083678
    139 C48         6.2910    1.5330   -3.9250 c3        1 MOL     -0.081594
    140 C49         5.8370    0.3650   -3.1710 c3        1 MOL     -0.034175
    141 H60         7.4400    2.3420   -1.4330 h1        1 MOL      0.057883
    142 H61         4.9380    2.9380   -3.0160 hc        1 MOL      0.065232
    143 H62         6.5180    3.6430   -3.2290 hc        1 MOL      0.065232
    144 H63         5.6760    1.6330   -4.8170 hc        1 MOL      0.040314
    145 H64         7.3410    1.4240   -4.2010 hc        1 MOL      0.040314
    146 H65         4.8100    0.0710   -3.3540 h1        1 MOL      0.039013
    147 H66         6.4520   -0.4610   -3.5420 h1        1 MOL      0.039013
    148 N13         4.6450    2.0620    0.0330 n         1 MOL     -0.104063
    149 C50         3.9050    2.4930    1.2180 c3        1 MOL     -0.234051
    150 C51         4.6480    2.1070    2.4380 c         1 MOL      0.481589
    151 O21         4.5770    2.8200    3.4650 o         1 MOL     -0.592893
    152 C52         2.5160    1.8290    1.2290 c3        1 MOL      0.048178
    153 C53         1.4750    2.4360    0.2780 c3        1 MOL     -0.132884
    154 C54         0.1810    1.7190    0.3720 c         1 MOL      0.715976
    155 O22        -0.7880    2.1130   -0.2510 o         1 MOL     -0.814174
    156 O23         0.0400    0.7030    0.9920 o         1 MOL     -0.814174
    157 H67         4.4300    1.1290   -0.2840 hn        1 MOL      0.118880
    158 H68         3.8380    3.5790    1.1940 h1        1 MOL      0.146912
    159 H69         2.1310    2.0090    2.2300 hc        1 MOL      0.033755
    160 H70         2.5530    0.7690    0.9510 hc        1 MOL      0.033755
    161 H71         1.9250    2.4240   -0.7190 hc        1 MOL      0.043083
    162 H72         1.2100    3.4500    0.5660 hc        1 MOL      0.043083
    163 N14         5.2580    0.9580    2.4830 n         1 MOL      0.055425
    164 C55         6.0280    0.3960    3.5430 c3        1 MOL     -0.385249
    165 H73         5.7300    0.8500    4.4880 h1        1 MOL      0.124116
    166 H74         5.8570   -0.6790    3.5860 h1        1 MOL      0.124116
    167 H75         7.0860    0.5900    3.3660 h1        1 MOL      0.124116
    168 H76         5.2290    0.5100    1.5780 hn        1 MOL      0.028795
    169 Ca1        -2.1860   -0.0780   -0.1810 Ca        1 MOL      1.728380
    170 O24        -1.6350   -0.1280    3.0100 oh        1 MOL     -0.872038
    171 H77        -1.5520    0.3640    3.8310 ho        1 MOL      0.436490
    172 H78        -0.8410    0.0850    2.5270 ho        1 MOL      0.436490
    173 O25        -3.8660   -1.0160    1.5260 oh        1 MOL     -0.872038
    174 H79        -3.3360   -0.7140    2.2640 ho        1 MOL      0.436490
    175 H80        -4.7590   -0.7350    1.7480 ho        1 MOL      0.436490
@<TRIPOS>BOND
     1    1    2 1   
     2    1    4 1   
     3    1    5 1   
     4    1    6 1   
     5    2    3 2   
     6    2    7 1   
     7    7    8 1   
     8    7   15 1   
     9    8    9 1   
    10    8   11 1   
    11    8   16 1   
    12    9   10 2   
    13    9   19 1   
    14   11   12 1   
    15   11   17 1   
    16   11   18 1   
    17   12   13 1   
    18   12   14 1   
    19   19   20 1   
    20   19   24 1   
    21   20   21 1   
    22   20   23 1   
    23   20   25 1   
    24   21   22 2   
    25   21   29 1   
    26   23   26 1   
    27   23   27 1   
    28   23   28 1   
    29   29   30 1   
    30   29   37 1   
    31   30   31 1   
    32   30   33 1   
    33   30   38 1   
    34   31   32 2   
    35   31   41 1   
    36   33   34 1   
    37   33   39 1   
    38   33   40 1   
    39   34   35 1   
    40   34   36 1   
    41   41   42 1   
    42   41   45 1   
    43   42   43 1   
    44   42   46 1   
    45   42   47 1   
    46   43   44 2   
    47   43   48 1   
    48   48   49 1   
    49   48   56 1   
    50   49   50 1   
    51   49   52 1   
    52   49   57 1   
    53   50   51 2   
    54   50   62 1   
    55   52   53 1   
    56   52   58 1   
    57   52   59 1   
    58   53   54 1   
    59   53   55 2   
    60   54   60 1   
    61   54   61 1   
    62   62   63 1   
    63   62   66 1   
    64   63   64 1   
    65   63   67 1   
    66   63   68 1   
    67   64   65 2   
    68   64   69 1   
    69   69   70 1   
    70   69   76 1   
    71   70   71 1   
    72   70   73 1   
    73   70   77 1   
    74   71   72 2   
    75   71   83 1   
    76   73   74 1   
    77   73   75 1   
    78   73   78 1   
    79   74   80 1   
    80   74   81 1   
    81   74   82 1   
    82   75   79 1   
    83   83   84 1   
    84   83   91 1   
    85   84   85 1   
    86   84   87 1   
    87   84   92 1   
    88   85   86 2   
    89   85  102 1   
    90   87   88 1   
    91   87   89 1   
    92   87   93 1   
    93   88   90 1   
    94   88   94 1   
    95   88   95 1   
    96   89   96 1   
    97   89   97 1   
    98   89   98 1   
    99   90   99 1   
   100   90  100 1   
   101   90  101 1   
   102  102  103 1   
   103  102  110 1   
   104  103  104 1   
   105  103  106 1   
   106  103  111 1   
   107  104  105 2   
   108  104  114 1   
   109  106  107 1   
   110  106  112 1   
   111  106  113 1   
   112  107  108 1   
   113  107  109 1   
   114  114  115 1   
   115  114  125 1   
   116  115  116 1   
   117  115  118 1   
   118  115  126 1   
   119  116  117 2   
   120  116  134 1   
   121  118  119 1   
   122  118  127 1   
   123  118  128 1   
   124  119  120 ar  
   125  119  121 ar  
   126  120  122 ar  
   127  120  129 1   
   128  121  123 ar  
   129  121  130 1   
   130  122  124 ar  
   131  122  131 1   
   132  123  124 ar  
   133  123  132 1   
   134  124  133 1   
   135  134  135 1   
   136  134  140 1   
   137  135  136 1   
   138  135  138 1   
   139  135  141 1   
   140  136  137 2   
   141  136  148 1   
   142  138  139 1   
   143  138  142 1   
   144  138  143 1   
   145  139  140 1   
   146  139  144 1   
   147  139  145 1   
   148  140  146 1   
   149  140  147 1   
   150  148  149 1   
   151  148  157 1   
   152  149  150 1   
   153  149  152 1   
   154  149  158 1   
   155  150  151 2   
   156  150  163 1   
   157  152  153 1   
   158  152  159 1   
   159  152  160 1   
   160  153  154 1   
   161  153  161 1   
   162  153  162 1   
   163  154  155 1   
   164  154  156 1   
   165  163  164 1   
   166  163  168 1   
   167  164  165 1   
   168  164  166 1   
   169  164  167 1   
   170  170  171 1   
   171  170  172 1   
   172  173  174 1   
   173  173  175 1   
@<TRIPOS>SUBSTRUCTURE
     1 MOL         1 TEMP              0 ****  ****    0 ROOT
