@<TRIPOS>MOLECULE
MOL
  175   173     1     0     0
SMALL
resp


@<TRIPOS>ATOM
      1 C1         -0.7880    3.3740    5.8730 c3        1 MOL     -0.410118
      2 C2         -1.0640    3.0830    4.4200 c         1 MOL      0.809144
      3 O1         -0.4050    3.5870    3.5130 o         1 MOL     -0.618134
      4 H1         -1.2060    4.3450    6.1340 hc        1 MOL      0.094765
      5 H2         -1.2460    2.6030    6.4920 hc        1 MOL      0.094765
      6 H3          0.2890    3.3850    6.0430 hc        1 MOL      0.094765
      7 N1         -2.1590    2.4070    4.1760 n         1 MOL     -0.649578
      8 C3         -2.6370    2.3330    2.7840 c3        1 MOL      0.193691
      9 C4         -3.1170    3.6970    2.2010 c         1 MOL      0.456894
     10 O2         -4.1170    4.3070    2.6610 o         1 MOL     -0.572098
     11 C5         -3.7980    1.3320    2.7090 c3        1 MOL     -0.008041
     12 C6         -4.3180    0.8600    1.3780 c         1 MOL      0.806035
     13 O3         -5.2470    0.0410    1.3780 o         1 MOL     -0.734620
     14 O4         -3.6830    1.1760    0.3810 o         1 MOL     -0.734620
     15 H4         -2.7870    2.0910    4.9000 hn        1 MOL      0.334687
     16 H5         -1.7650    2.0020    2.2290 h1        1 MOL     -0.066037
     17 H6         -4.6420    1.7400    3.2550 hc        1 MOL     -0.016342
     18 H7         -3.5330    0.5290    3.3950 hc        1 MOL     -0.016342
     19 N2         -2.5050    4.1280    1.0890 n         1 MOL     -0.325469
     20 C7         -2.7560    5.3930    0.3600 c3        1 MOL      0.234792
     21 C8         -3.7630    5.0830   -0.7910 c         1 MOL      0.415217
     22 O5         -4.5940    5.9360   -1.0520 o         1 MOL     -0.557022
     23 C9         -1.3650    5.9430   -0.1500 c3        1 MOL     -0.455898
     24 H8         -1.5800    3.7580    0.9530 hn        1 MOL      0.317087
     25 H9         -3.2800    6.1130    0.9900 h1        1 MOL      0.025751
     26 H10        -0.7740    6.1260    0.7530 hc        1 MOL      0.121671
     27 H11        -0.9110    5.1310   -0.7180 hc        1 MOL      0.121671
     28 H12        -1.6060    6.8230   -0.7430 hc        1 MOL      0.121671
     29 N3         -3.6900    3.9480   -1.5130 n         1 MOL     -0.182094
     30 C10        -4.4530    3.7480   -2.7020 c3        1 MOL      0.065096
     31 C11        -5.8160    3.1040   -2.3570 c         1 MOL      0.349031
     32 O6         -6.8410    3.6710   -2.9440 o         1 MOL     -0.575500
     33 C12        -3.7120    3.0230   -3.7680 c3        1 MOL     -0.241417
     34 C13        -3.1300    1.7560   -3.2520 c         1 MOL      0.726277
     35 O7         -1.9230    1.7520   -2.8650 o         1 MOL     -0.740239
     36 O8         -3.8860    0.7630   -3.0490 o         1 MOL     -0.740239
     37 H13        -2.9510    3.2880   -1.2820 hn        1 MOL      0.140739
     38 H14        -4.7200    4.7210   -3.1050 h1        1 MOL      0.087634
     39 H15        -2.9610    3.6440   -4.2410 hc        1 MOL      0.057822
     40 H16        -4.4400    2.7860   -4.5500 hc        1 MOL      0.057822
     41 N4         -5.9450    2.2690   -1.3280 n         1 MOL      0.072848
     42 C14        -7.2340    1.8370   -0.7590 c3        1 MOL     -0.042174
     43 C15        -7.5470    0.4060   -1.1270 c         1 MOL      0.530141
     44 O9         -8.6090    0.1520   -1.7850 o         1 MOL     -0.578769
     45 H17        -5.1010    1.9880   -0.8540 hn        1 MOL      0.024850
     46 H18        -8.0230    2.5040   -1.1110 h1        1 MOL      0.043278
     47 H19        -7.1570    2.0440    0.3050 h1        1 MOL      0.043278
     48 N5         -6.7080   -0.5990   -0.8800 n         1 MOL     -0.384602
     49 C16        -6.9380   -1.9390   -1.3510 c3        1 MOL     -0.021037
     50 C17        -6.7490   -3.0760   -0.3120 c         1 MOL      0.461710
     51 O10        -6.9310   -4.3020   -0.6080 o         1 MOL     -0.543432
     52 C18        -6.1770   -2.2020   -2.6650 c3        1 MOL     -0.248206
     53 C19        -4.6920   -2.1200   -2.5700 c         1 MOL      0.597474
     54 N6         -3.9270   -2.4150   -3.5630 n         1 MOL     -0.651547
     55 O11        -4.2020   -1.6420   -1.5840 o         1 MOL     -0.544730
     56 H20        -5.8570   -0.3970   -0.3770 hn        1 MOL      0.245630
     57 H21        -7.9950   -2.0040   -1.6050 h1        1 MOL      0.120273
     58 H22        -6.4730   -1.3650   -3.3100 hc        1 MOL      0.101952
     59 H23        -6.4200   -3.1470   -3.1460 hc        1 MOL      0.101952
     60 H24        -4.4060   -2.7430   -4.3880 hn        1 MOL      0.308623
     61 H25        -2.9330   -2.3710   -3.4240 hn        1 MOL      0.308623
     62 N7         -6.5510   -2.6840    0.9850 n         1 MOL     -0.239958
     63 C20        -6.4730   -3.4650    2.1390 c3        1 MOL     -0.121014
     64 C21        -5.1530   -4.1990    2.4180 c         1 MOL      0.454284
     65 O12        -5.1940   -5.2460    3.1200 o         1 MOL     -0.523467
     66 H26        -6.4190   -1.6930    1.0880 hn        1 MOL      0.239308
     67 H27        -7.3000   -4.1560    2.1960 h1        1 MOL      0.089646
     68 H28        -6.6080   -2.7550    2.9530 h1        1 MOL      0.089646
     69 N8         -4.0180   -3.6060    1.9060 n         1 MOL     -0.186238
     70 C22        -2.6870   -4.1290    1.9130 c3        1 MOL     -0.188635
     71 C23        -1.6200   -3.0350    1.6730 c         1 MOL      0.684665
     72 O13        -2.0210   -1.9730    1.1860 o         1 MOL     -0.585732
     73 C24        -2.5070   -5.2870    0.8540 c3        1 MOL      0.473833
     74 C25        -3.5640   -6.3510    0.7330 c3        1 MOL     -0.526642
     75 O14        -2.4760   -4.7310   -0.4710 oh        1 MOL     -0.728903
     76 H29        -4.0140   -2.6980    1.4720 hn        1 MOL      0.192941
     77 H30        -2.4340   -4.5890    2.8660 h1        1 MOL      0.074991
     78 H31        -1.5320   -5.7150    1.0270 h1        1 MOL     -0.016961
     79 H32        -2.8050   -5.3920   -1.0800 ho        1 MOL      0.424667
     80 H33        -3.2600   -7.0520   -0.0430 hc        1 MOL      0.142082
     81 H34        -3.7020   -6.7010    1.7560 hc        1 MOL      0.142082
     82 H35        -4.4800   -5.9400    0.3050 hc        1 MOL      0.142082
     83 N9         -0.3240   -3.2520    2.0000 n         1 MOL     -0.450901
     84 C26         0.7360   -2.3380    1.6600 c3        1 MOL     -0.026528
     85 C27         1.8130   -2.9050    0.7030 c         1 MOL      0.633988
     86 O15         2.2870   -4.0450    0.8450 o         1 MOL     -0.607737
     87 C28         1.3080   -1.5890    2.8260 c3        1 MOL      0.055774
     88 C29         1.6550   -2.4250    4.0970 c3        1 MOL     -0.039112
     89 C30         0.4110   -0.4180    3.2380 c3        1 MOL      0.035352
     90 C31         2.4130   -1.6900    5.1900 c3        1 MOL     -0.275422
     91 H36        -0.0730   -4.1430    2.3950 hn        1 MOL      0.278527
     92 H37         0.1840   -1.6090    1.0690 h1        1 MOL     -0.102614
     93 H38         2.2330   -1.1310    2.4670 hc        1 MOL     -0.079459
     94 H39         2.4040   -3.1350    3.7240 hc        1 MOL      0.037115
     95 H40         0.8810   -3.1440    4.3730 hc        1 MOL      0.037115
     96 H41        -0.4250   -0.6970    3.8790 hc        1 MOL      0.004058
     97 H42         0.8750    0.4180    3.7580 hc        1 MOL      0.004058
     98 H43        -0.0430    0.1180    2.4050 hc        1 MOL      0.004058
     99 H44         3.2420   -1.1390    4.7520 hc        1 MOL      0.068870
    100 H45         1.7330   -1.1020    5.8120 hc        1 MOL      0.068870
    101 H46         3.0100   -2.3640    5.8070 hc        1 MOL      0.068870
    102 N10         2.2200   -2.0560   -0.2310 n         1 MOL     -0.439443
    103 C32         3.2810   -2.2880   -1.1670 c3        1 MOL      0.080660
    104 C33         4.5570   -1.5870   -0.5980 c         1 MOL      0.460980
    105 O16         4.4500   -0.8410    0.3730 o         1 MOL     -0.401996
    106 C34         2.7960   -1.7770   -2.5370 c3        1 MOL     -0.088213
    107 C35         3.6500   -2.0620   -3.7100 c         1 MOL      0.659976
    108 O17         4.6780   -2.7790   -3.5840 o         1 MOL     -0.711792
    109 O18         3.3290   -1.4920   -4.7990 o         1 MOL     -0.711792
    110 H47         1.6940   -1.1920   -0.2300 hn        1 MOL      0.322076
    111 H48         3.4760   -3.3610   -1.2730 h1        1 MOL      0.068755
    112 H49         2.4780   -0.7380   -2.5510 hc        1 MOL      0.031170
    113 H50         1.9470   -2.4030   -2.8020 hc        1 MOL      0.031170
    114 N11         5.6910   -1.7290   -1.2840 n         1 MOL     -0.548781
    115 C36         6.9550   -1.2270   -0.7560 c3        1 MOL      0.271804
    116 C37         6.9520    0.2850   -0.5820 c         1 MOL      0.350423
    117 O19         7.4410    0.7520    0.4490 o         1 MOL     -0.489425
    118 C38         8.0980   -1.7830   -1.5430 c3        1 MOL     -0.072200
    119 C39         9.5380   -1.4550   -1.0940 ca        1 MOL      0.097818
    120 C40         9.9190   -1.8520    0.2250 ca        1 MOL     -0.216271
    121 C41        10.3880   -0.7740   -1.9160 ca        1 MOL     -0.216271
    122 C42        11.2000   -1.4330    0.7390 ca        1 MOL     -0.048509
    123 C43        11.6240   -0.4500   -1.5100 ca        1 MOL     -0.048509
    124 C44        12.0430   -0.7310   -0.1460 ca        1 MOL     -0.186613
    125 H51         5.7070   -2.2110   -2.1680 hn        1 MOL      0.275982
    126 H52         7.0170   -1.7030    0.2250 h1        1 MOL      0.043962
    127 H53         8.0460   -1.4090   -2.5690 hc        1 MOL      0.038012
    128 H54         8.1120   -2.8740   -1.6030 hc        1 MOL      0.038012
    129 H55         9.3310   -2.5160    0.8480 ha        1 MOL      0.129544
    130 H56        10.0730   -0.5180   -2.9180 ha        1 MOL      0.129544
    131 H57        11.5400   -1.7030    1.7270 ha        1 MOL      0.095337
    132 H58        12.2870    0.0330   -2.2060 ha        1 MOL      0.095337
    133 H59        13.0160   -0.4130    0.1910 ha        1 MOL      0.105269
    134 N12         6.2900    1.0990   -1.4710 n         1 MOL     -0.018141
    135 C45         6.2860    2.5700   -1.2220 c3        1 MOL     -0.041969
    136 C46         5.4210    2.8970    0.0490 c         1 MOL      0.311695
    137 O20         5.7590    3.7580    0.8250 o         1 MOL     -0.529508
    138 C47         5.8120    3.2310   -2.5640 c3        1 MOL     -0.020108
    139 C48         6.1840    2.2010   -3.6560 c3        1 MOL     -0.112293
    140 C49         5.9100    0.8810   -2.9000 c3        1 MOL     -0.142821
    141 H60         7.3220    2.7890   -0.9570 h1        1 MOL      0.069137
    142 H61         4.7350    3.3390   -2.5720 hc        1 MOL      0.040439
    143 H62         6.2550    4.2040   -2.7780 hc        1 MOL      0.040439
    144 H63         5.5090    2.3110   -4.5080 hc        1 MOL      0.052308
    145 H64         7.2080    2.3330   -3.9860 hc        1 MOL      0.052308
    146 H65         4.8430    0.6550   -2.9590 h1        1 MOL      0.106425
    147 H66         6.5050    0.0610   -3.3030 h1        1 MOL      0.106425
    148 N13         4.4280    2.1660    0.3450 n         1 MOL     -0.069087
    149 C50         3.5440    2.3850    1.5390 c3        1 MOL     -0.153583
    150 C51         4.2240    1.8290    2.8180 c         1 MOL      0.505319
    151 O21         4.0030    2.3760    3.9230 o         1 MOL     -0.595347
    152 C52         2.1640    1.8360    1.3030 c3        1 MOL     -0.014470
    153 C53         1.4640    2.3150   -0.0170 c3        1 MOL     -0.184621
    154 C54         0.3200    1.4230   -0.2170 c         1 MOL      0.811795
    155 O22         0.4150    0.3040   -0.7250 o         1 MOL     -0.763717
    156 O23        -0.8870    1.8390    0.0420 o         1 MOL     -0.763717
    157 H67         4.0900    1.3950   -0.2110 hn        1 MOL      0.150203
    158 H68         3.4170    3.4690    1.6450 h1        1 MOL      0.114916
    159 H69         1.6730    2.0160    2.2610 hc        1 MOL      0.092339
    160 H70         2.2140    0.7510    1.2700 hc        1 MOL      0.092339
    161 H71         2.1080    2.2060   -0.8910 hc        1 MOL      0.047680
    162 H72         1.1220    3.3460    0.0140 hc        1 MOL      0.047680
    163 N14         5.0280    0.7890    2.7200 n         1 MOL      0.003784
    164 C55         5.9980    0.3580    3.7830 c3        1 MOL     -0.144695
    165 H73         6.4220   -0.6110    3.5160 h1        1 MOL      0.068829
    166 H74         6.7980    1.0930    3.8640 h1        1 MOL      0.068829
    167 H75         5.4790    0.2760    4.7380 h1        1 MOL      0.068829
    168 H76         5.1450    0.4350    1.7830 hn        1 MOL      0.007889
    169 Ca1        -2.0900   -0.2100   -1.1760 Ca        1 MOL      1.801723
    170 O24        -1.3940   -1.1140   -3.9070 oh        1 MOL     -0.863840
    171 H77        -0.5010   -1.1570   -4.2280 ho        1 MOL      0.424374
    172 H78        -1.9320   -1.0320   -4.6840 ho        1 MOL      0.424374
    173 O25        -1.2240   -2.7300   -1.3860 oh        1 MOL     -0.863840
    174 H79        -0.8940   -3.2320   -2.1380 ho        1 MOL      0.424374
    175 H80        -1.7250   -3.3730   -0.8840 ho        1 MOL      0.424374
@<TRIPOS>BOND
     1    1    2 1   
     2    1    4 1   
     3    1    5 1   
     4    1    6 1   
     5    2    3 2   
     6    2    7 1   
     7    7    8 1   
     8    7   15 1   
     9    8    9 1   
    10    8   11 1   
    11    8   16 1   
    12    9   10 2   
    13    9   19 1   
    14   11   12 1   
    15   11   17 1   
    16   11   18 1   
    17   12   13 1   
    18   12   14 1   
    19   19   20 1   
    20   19   24 1   
    21   20   21 1   
    22   20   23 1   
    23   20   25 1   
    24   21   22 2   
    25   21   29 1   
    26   23   26 1   
    27   23   27 1   
    28   23   28 1   
    29   29   30 1   
    30   29   37 1   
    31   30   31 1   
    32   30   33 1   
    33   30   38 1   
    34   31   32 2   
    35   31   41 1   
    36   33   34 1   
    37   33   39 1   
    38   33   40 1   
    39   34   35 1   
    40   34   36 1   
    41   41   42 1   
    42   41   45 1   
    43   42   43 1   
    44   42   46 1   
    45   42   47 1   
    46   43   44 2   
    47   43   48 1   
    48   48   49 1   
    49   48   56 1   
    50   49   50 1   
    51   49   52 1   
    52   49   57 1   
    53   50   51 2   
    54   50   62 1   
    55   52   53 1   
    56   52   58 1   
    57   52   59 1   
    58   53   54 1   
    59   53   55 2   
    60   54   60 1   
    61   54   61 1   
    62   62   63 1   
    63   62   66 1   
    64   63   64 1   
    65   63   67 1   
    66   63   68 1   
    67   64   65 2   
    68   64   69 1   
    69   69   70 1   
    70   69   76 1   
    71   70   71 1   
    72   70   73 1   
    73   70   77 1   
    74   71   72 2   
    75   71   83 1   
    76   73   74 1   
    77   73   75 1   
    78   73   78 1   
    79   74   80 1   
    80   74   81 1   
    81   74   82 1   
    82   75   79 1   
    83   83   84 1   
    84   83   91 1   
    85   84   85 1   
    86   84   87 1   
    87   84   92 1   
    88   85   86 2   
    89   85  102 1   
    90   87   88 1   
    91   87   89 1   
    92   87   93 1   
    93   88   90 1   
    94   88   94 1   
    95   88   95 1   
    96   89   96 1   
    97   89   97 1   
    98   89   98 1   
    99   90   99 1   
   100   90  100 1   
   101   90  101 1   
   102  102  103 1   
   103  102  110 1   
   104  103  104 1   
   105  103  106 1   
   106  103  111 1   
   107  104  105 2   
   108  104  114 1   
   109  106  107 1   
   110  106  112 1   
   111  106  113 1   
   112  107  108 1   
   113  107  109 1   
   114  114  115 1   
   115  114  125 1   
   116  115  116 1   
   117  115  118 1   
   118  115  126 1   
   119  116  117 2   
   120  116  134 1   
   121  118  119 1   
   122  118  127 1   
   123  118  128 1   
   124  119  120 ar  
   125  119  121 ar  
   126  120  122 ar  
   127  120  129 1   
   128  121  123 ar  
   129  121  130 1   
   130  122  124 ar  
   131  122  131 1   
   132  123  124 ar  
   133  123  132 1   
   134  124  133 1   
   135  134  135 1   
   136  134  140 1   
   137  135  136 1   
   138  135  138 1   
   139  135  141 1   
   140  136  137 2   
   141  136  148 1   
   142  138  139 1   
   143  138  142 1   
   144  138  143 1   
   145  139  140 1   
   146  139  144 1   
   147  139  145 1   
   148  140  146 1   
   149  140  147 1   
   150  148  149 1   
   151  148  157 1   
   152  149  150 1   
   153  149  152 1   
   154  149  158 1   
   155  150  151 2   
   156  150  163 1   
   157  152  153 1   
   158  152  159 1   
   159  152  160 1   
   160  153  154 1   
   161  153  161 1   
   162  153  162 1   
   163  154  155 1   
   164  154  156 1   
   165  163  164 1   
   166  163  168 1   
   167  164  165 1   
   168  164  166 1   
   169  164  167 1   
   170  170  171 1   
   171  170  172 1   
   172  173  174 1   
   173  173  175 1   
@<TRIPOS>SUBSTRUCTURE
     1 MOL         1 TEMP              0 ****  ****    0 ROOT
