@<TRIPOS>MOLECULE
MOL
  179   176     1     0     0
SMALL
resp


@<TRIPOS>ATOM
      1 C1         -0.1310   -5.1180    4.4360 c3        1 MOL     -0.270627
      2 C2          0.2840   -4.1550    3.2590 c         1 MOL      0.592787
      3 O1         -0.6710   -3.7710    2.5540 o         1 MOL     -0.525330
      4 H1         -0.7360   -4.5700    5.1580 hc        1 MOL      0.072086
      5 H2         -0.7080   -5.9520    4.0370 hc        1 MOL      0.072086
      6 H3          0.7650   -5.4980    4.9280 hc        1 MOL      0.072086
      7 N1          1.5620   -3.8040    3.0210 n         1 MOL     -0.551350
      8 C3          2.0940   -2.9600    1.9630 c3        1 MOL      0.121911
      9 C4          3.0890   -3.6080    1.1300 c         1 MOL      0.531610
     10 O2          4.2830   -3.5930    1.4300 o         1 MOL     -0.498567
     11 C5          2.5340   -1.6310    2.6480 c3        1 MOL     -0.073766
     12 C6          3.0380   -0.6530    1.5920 c         1 MOL      0.633146
     13 O3          2.6390   -0.7270    0.4230 o         1 MOL     -0.691152
     14 O4          3.8330    0.2590    1.9050 o         1 MOL     -0.691152
     15 H4          2.2050   -4.2250    3.6820 hn        1 MOL      0.301920
     16 H5          1.2930   -2.5330    1.3650 h1        1 MOL      0.033621
     17 H6          3.3520   -1.8510    3.3350 hc        1 MOL      0.027460
     18 H7          1.7600   -1.1600    3.2360 hc        1 MOL      0.027460
     19 N2          2.5210   -4.4730    0.2280 n         1 MOL     -0.318075
     20 C7          3.3760   -5.5120   -0.3900 c3        1 MOL     -0.095797
     21 C8          4.3570   -4.9520   -1.4950 c         1 MOL      0.457815
     22 O5          5.3070   -5.6310   -1.7730 o         1 MOL     -0.521563
     23 C9          2.4910   -6.6340   -0.8900 c3        1 MOL      0.031062
     24 C10         1.6450   -7.2890    0.2770 c3        1 MOL      0.084525
     25 C11         2.4430   -7.5160    1.5710 c3        1 MOL     -0.163620
     26 C12         3.7110   -8.3010    1.2430 c3        1 MOL      0.211480
     27 N3          4.4170   -8.7490    2.4130 n4        1 MOL     -0.356694
     28 H8          1.5040   -4.5370    0.1740 hn        1 MOL      0.297752
     29 H9          4.0300   -5.9230    0.3730 h1        1 MOL      0.069379
     30 H10         3.1670   -7.4240   -1.2330 hc        1 MOL      0.021584
     31 H11         1.8250   -6.3940   -1.7140 hc        1 MOL      0.021584
     32 H12         1.3830   -8.2520   -0.1680 hc        1 MOL      0.018834
     33 H13         0.7330   -6.7270    0.4890 hc        1 MOL      0.018834
     34 H14         1.8580   -8.0440    2.3120 hc        1 MOL      0.019316
     35 H15         2.6780   -6.5480    2.0070 hc        1 MOL      0.019316
     36 H16         4.4460   -7.8080    0.6160 hx        1 MOL      0.039899
     37 H17         3.3800   -9.1520    0.6480 hx        1 MOL      0.039899
     38 H18         3.8700   -9.2680    3.0780 hn        1 MOL      0.320034
     39 H19         5.2270   -9.3420    2.2990 hn        1 MOL      0.320034
     40 H20         4.7720   -7.9850    2.9800 hn        1 MOL      0.320034
     41 N4          3.9260   -3.9440   -2.2280 n         1 MOL     -0.312118
     42 C13         4.7310   -3.0910   -3.2120 c3        1 MOL      0.151186
     43 C14         5.7450   -2.2450   -2.4790 c         1 MOL      0.425264
     44 O6          6.8370   -1.9670   -2.8990 o         1 MOL     -0.534591
     45 C15         3.8040   -2.1390   -3.9780 c3        1 MOL     -0.277224
     46 C16         2.8990   -1.3140   -3.0810 c         1 MOL      0.624672
     47 O7          3.3030   -0.1940   -2.6280 o         1 MOL     -0.693602
     48 O8          1.8570   -1.8410   -2.5580 o         1 MOL     -0.693602
     49 H21         3.1130   -3.4290   -1.9310 hn        1 MOL      0.209689
     50 H22         5.3120   -3.6030   -3.9880 h1        1 MOL      0.063036
     51 H23         3.1850   -2.7790   -4.6090 hc        1 MOL      0.091187
     52 H24         4.3890   -1.4300   -4.5750 hc        1 MOL      0.091187
     53 N5          5.2960   -1.7240   -1.2770 n         1 MOL      0.107174
     54 C17         6.1640   -0.9860   -0.3240 c3        1 MOL     -0.212847
     55 C18         6.4990    0.4710   -0.7050 c         1 MOL      0.507005
     56 O9          7.5190    0.9680   -0.2470 o         1 MOL     -0.542403
     57 H25         4.4270   -2.1740   -1.0000 hn        1 MOL     -0.125158
     58 H26         7.0970   -1.5290   -0.1780 h1        1 MOL      0.107523
     59 H27         5.5970   -1.0270    0.5980 h1        1 MOL      0.107523
     60 N6          5.4640    1.1650   -1.2280 n         1 MOL     -0.219806
     61 C19         5.5810    2.5790   -1.4300 c3        1 MOL      0.030584
     62 C20         5.5970    3.3510   -0.0630 c         1 MOL      0.291639
     63 O10         5.9230    4.5500   -0.0710 o         1 MOL     -0.468752
     64 C21         4.5610    3.0100   -2.4580 c3        1 MOL     -0.064363
     65 C22         3.1290    2.9010   -1.9580 c         1 MOL      0.279179
     66 N7          2.1080    3.3690   -2.6220 n         1 MOL     -0.628017
     67 O11         2.7720    2.3380   -0.9540 o         1 MOL     -0.054726
     68 H28         4.6950    0.6170   -1.5840 hn        1 MOL      0.095000
     69 H29         6.5440    2.7750   -1.9180 h1        1 MOL      0.068029
     70 H30         4.5770    2.3330   -3.3080 hc        1 MOL      0.063992
     71 H31         4.9310    3.9670   -2.8120 hc        1 MOL      0.063992
     72 H32         2.2530    3.6340   -3.5850 hn        1 MOL      0.291759
     73 H33         1.1330    3.3830   -2.3460 hn        1 MOL      0.291759
     74 N8          5.1830    2.7340    1.0280 n         1 MOL     -0.115974
     75 C23         4.8240    3.3670    2.2960 c3        1 MOL     -0.069280
     76 C24         3.3730    3.9090    2.4660 c         1 MOL      0.556919
     77 O12         3.1450    4.8800    3.2180 o         1 MOL     -0.552994
     78 H34         4.8680    1.7750    0.9050 hn        1 MOL      0.192690
     79 H35         5.4420    4.2390    2.5060 h1        1 MOL      0.058409
     80 H36         4.8610    2.7400    3.1880 h1        1 MOL      0.058409
     81 N9          2.4510    3.3890    1.6590 n         1 MOL     -0.450707
     82 C25         1.0710    3.7880    1.9150 c3        1 MOL      0.345121
     83 C26         0.1640    2.5600    1.6300 c         1 MOL      0.412338
     84 O13         0.4230    1.6840    0.7170 o         1 MOL     -0.589006
     85 C27         0.7370    4.9320    0.9670 c3        1 MOL     -0.066393
     86 C28         1.6280    6.2170    0.9000 ca        1 MOL     -0.074592
     87 C29         2.8240    6.2680    0.1060 ca        1 MOL     -0.040926
     88 C30         1.1630    7.4550    1.4570 ca        1 MOL     -0.040926
     89 C31         3.4960    7.4740   -0.1820 ca        1 MOL     -0.335019
     90 C32         1.8040    8.6600    1.2330 ca        1 MOL     -0.335019
     91 C33         2.9630    8.6950    0.4260 ca        1 MOL      0.393140
     92 O14         3.4970    9.9360    0.0730 oh        1 MOL     -0.470004
     93 H37         2.6570    2.6540    0.9940 hn        1 MOL      0.225964
     94 H38         0.8780    4.1350    2.9250 h1        1 MOL     -0.018884
     95 H39        -0.3000    5.1440    1.2470 hc        1 MOL      0.026539
     96 H40         0.6760    4.4870   -0.0300 hc        1 MOL      0.026539
     97 H41         3.1850    5.4090   -0.4410 ha        1 MOL      0.079305
     98 H42         0.1770    7.4210    1.8860 ha        1 MOL      0.079305
     99 H43         4.3410    7.4910   -0.8470 ha        1 MOL      0.168047
    100 H44         1.3730    9.5360    1.7060 ha        1 MOL      0.168047
    101 H45         2.9430   10.5780    0.5280 ho        1 MOL      0.317313
    102 N10        -1.0220    2.5730    2.2170 n         1 MOL     -0.578676
    103 C34        -2.2140    1.6520    1.8560 c3        1 MOL      0.027038
    104 C35        -3.2430    2.5990    1.2650 c         1 MOL      0.764734
    105 O15        -3.5090    3.6380    1.7950 o         1 MOL     -0.584752
    106 C36        -2.6340    1.0690    3.1950 c3        1 MOL     -0.032096
    107 C37        -1.7560   -0.0900    3.4910 c3        1 MOL      0.064761
    108 C38        -4.1380    0.6720    3.2270 c3        1 MOL      0.008255
    109 C39        -1.7220   -0.4670    4.9580 c3        1 MOL     -0.117369
    110 H46        -1.2080    3.3670    2.7960 hn        1 MOL      0.349545
    111 H47        -1.9980    0.8330    1.1580 h1        1 MOL      0.037059
    112 H48        -2.5370    1.7470    4.0490 hc        1 MOL      0.031940
    113 H49        -0.7190    0.1150    3.2270 hc        1 MOL      0.054451
    114 H50        -1.9960   -1.0180    2.9620 hc        1 MOL      0.054451
    115 H51        -4.4420    0.2580    4.1870 hc        1 MOL     -0.007772
    116 H52        -4.7580    1.5650    3.1070 hc        1 MOL     -0.007772
    117 H53        -4.3450   -0.1260    2.5060 hc        1 MOL     -0.007772
    118 H54        -1.7010    0.4290    5.5680 hc        1 MOL      0.022702
    119 H55        -2.6830   -0.9420    5.1800 hc        1 MOL      0.022702
    120 H56        -0.8310   -1.0010    5.2870 hc        1 MOL      0.022702
    121 N11        -3.8820    2.1990    0.1590 n         1 MOL     -0.632290
    122 C40        -5.1820    2.6750   -0.2980 c3        1 MOL      0.255739
    123 C41        -6.3320    1.7590   -0.0090 c         1 MOL      0.338773
    124 O16        -6.1620    0.6610    0.4640 o         1 MOL     -0.284096
    125 C42        -5.0120    2.8650   -1.7980 c3        1 MOL     -0.305296
    126 O17        -5.1720    1.6170   -2.3880 oh        1 MOL     -0.431218
    127 H57        -3.5670    1.2970   -0.1770 hn        1 MOL      0.352139
    128 H58        -5.5340    3.6110    0.1380 h1        1 MOL      0.046683
    129 H59        -4.0520    3.2680   -2.1210 h1        1 MOL      0.133406
    130 H60        -5.8620    3.4210   -2.1880 h1        1 MOL      0.133406
    131 H61        -4.6930    1.6840   -3.2180 ho        1 MOL      0.383851
    132 N12        -7.5420    2.2400   -0.2240 n         1 MOL     -0.401710
    133 C43        -8.8260    1.5230    0.0170 c3        1 MOL      0.086358
    134 C44        -8.8790    0.1550   -0.6800 c         1 MOL      0.470315
    135 O18        -9.3020   -0.8490   -0.0790 o         1 MOL     -0.521512
    136 C45       -10.0030    2.4220   -0.4210 c3        1 MOL     -0.237848
    137 H62        -7.6580    3.1930   -0.5440 hn        1 MOL      0.287500
    138 H63        -8.9340    1.2600    1.0700 h1        1 MOL      0.084568
    139 H64       -10.9050    2.0780    0.0940 hc        1 MOL      0.078716
    140 H65        -9.8570    3.4570   -0.1250 hc        1 MOL      0.078716
    141 H66       -10.1500    2.4180   -1.5070 hc        1 MOL      0.078716
    142 N13        -8.4560   -0.0500   -1.9110 n         1 MOL     -0.385628
    143 C46        -8.2730   -1.2550   -2.7080 c3        1 MOL      0.216742
    144 C47        -7.2750   -2.2190   -1.9990 c         1 MOL      0.297006
    145 O19        -7.6600   -3.3630   -1.7090 o         1 MOL     -0.485832
    146 C48        -7.7020   -0.8480   -4.0770 c3        1 MOL     -0.238490
    147 H67        -8.0300    0.7570   -2.3320 hn        1 MOL      0.229610
    148 H68        -9.1750   -1.8520   -2.8480 h1        1 MOL      0.065603
    149 H69        -7.4680   -1.7120   -4.6990 hc        1 MOL      0.052206
    150 H70        -8.4380   -0.1700   -4.5050 hc        1 MOL      0.052206
    151 H71        -6.7720   -0.3150   -3.8590 hc        1 MOL      0.052206
    152 N14        -6.1420   -1.7230   -1.5590 n         1 MOL     -0.121817
    153 C49        -5.1970   -2.5790   -0.7470 c3        1 MOL     -0.039609
    154 C50        -5.6880   -3.0480    0.6400 c         1 MOL      0.360328
    155 O20        -5.4220   -4.2040    1.0280 o         1 MOL     -0.519613
    156 C51        -3.8940   -1.8850   -0.4550 c3        1 MOL      0.171362
    157 C52        -2.9890   -1.7420   -1.6880 c3        1 MOL     -0.073726
    158 C53        -1.7920   -0.7930   -1.3890 c         1 MOL      0.740231
    159 O21        -0.8420   -1.2320   -0.7000 o         1 MOL     -0.760285
    160 O22        -1.7570    0.2960   -1.9690 o         1 MOL     -0.760285
    161 H72        -5.8040   -0.8000   -1.7970 hn        1 MOL      0.155952
    162 H73        -4.9820   -3.4850   -1.3160 h1        1 MOL      0.090447
    163 H74        -3.3590   -2.3450    0.3750 hc        1 MOL     -0.014849
    164 H75        -4.1130   -0.8370   -0.2230 hc        1 MOL     -0.014849
    165 H76        -3.4960   -1.3160   -2.5520 hc        1 MOL     -0.022342
    166 H77        -2.7330   -2.7620   -2.0090 hc        1 MOL     -0.022342
    167 N15        -6.4710   -2.1150    1.2990 n         1 MOL      0.046193
    168 C54        -7.2790   -2.3900    2.5700 c3        1 MOL     -0.381063
    169 H78        -7.6130   -1.4450    3.0000 h1        1 MOL      0.140126
    170 H79        -8.1460   -3.0030    2.3250 h1        1 MOL      0.140126
    171 H80        -6.6540   -2.9160    3.2910 h1        1 MOL      0.140126
    172 H81        -6.2950   -1.2020    0.9090 hn        1 MOL     -0.024461
    173 Ca1         1.0860    0.3060   -1.3740 Ca        1 MOL      1.684348
    174 O23        -0.4170    2.6650   -2.1600 oh        1 MOL     -0.822875
    175 H82        -0.9150    1.8820   -2.4010 ho        1 MOL      0.408670
    176 H83        -0.9130    3.3860   -2.5520 ho        1 MOL      0.408670
    177 O24         0.7430    0.5920   -4.0130 oh        1 MOL     -0.822875
    178 H84         1.0350   -0.1410   -4.5530 ho        1 MOL      0.408670
    179 H85         0.2440    1.1550   -4.6100 ho        1 MOL      0.408670
@<TRIPOS>BOND
     1    1    2 1   
     2    1    4 1   
     3    1    5 1   
     4    1    6 1   
     5    2    3 2   
     6    2    7 1   
     7    7    8 1   
     8    7   15 1   
     9    8    9 1   
    10    8   11 1   
    11    8   16 1   
    12    9   10 2   
    13    9   19 1   
    14   11   12 1   
    15   11   17 1   
    16   11   18 1   
    17   12   13 1   
    18   12   14 1   
    19   19   20 1   
    20   19   28 1   
    21   20   21 1   
    22   20   23 1   
    23   20   29 1   
    24   21   22 2   
    25   21   41 1   
    26   23   24 1   
    27   23   30 1   
    28   23   31 1   
    29   24   25 1   
    30   24   32 1   
    31   24   33 1   
    32   25   26 1   
    33   25   34 1   
    34   25   35 1   
    35   26   27 1   
    36   26   36 1   
    37   26   37 1   
    38   27   38 1   
    39   27   39 1   
    40   27   40 1   
    41   41   42 1   
    42   41   49 1   
    43   42   43 1   
    44   42   45 1   
    45   42   50 1   
    46   43   44 2   
    47   43   53 1   
    48   45   46 1   
    49   45   51 1   
    50   45   52 1   
    51   46   47 1   
    52   46   48 1   
    53   53   54 1   
    54   53   57 1   
    55   54   55 1   
    56   54   58 1   
    57   54   59 1   
    58   55   56 2   
    59   55   60 1   
    60   60   61 1   
    61   60   68 1   
    62   61   62 1   
    63   61   64 1   
    64   61   69 1   
    65   62   63 2   
    66   62   74 1   
    67   64   65 1   
    68   64   70 1   
    69   64   71 1   
    70   65   66 1   
    71   65   67 2   
    72   66   72 1   
    73   66   73 1   
    74   74   75 1   
    75   74   78 1   
    76   75   76 1   
    77   75   79 1   
    78   75   80 1   
    79   76   77 2   
    80   76   81 1   
    81   81   82 1   
    82   81   93 1   
    83   82   83 1   
    84   82   85 1   
    85   82   94 1   
    86   83   84 2   
    87   83  102 1   
    88   85   86 1   
    89   85   95 1   
    90   85   96 1   
    91   86   87 ar  
    92   86   88 ar  
    93   87   89 ar  
    94   87   97 1   
    95   88   90 ar  
    96   88   98 1   
    97   89   91 ar  
    98   89   99 1   
    99   90   91 ar  
   100   90  100 1   
   101   91   92 1   
   102   92  101 1   
   103  102  103 1   
   104  102  110 1   
   105  103  104 1   
   106  103  106 1   
   107  103  111 1   
   108  104  105 2   
   109  104  121 1   
   110  106  107 1   
   111  106  108 1   
   112  106  112 1   
   113  107  109 1   
   114  107  113 1   
   115  107  114 1   
   116  108  115 1   
   117  108  116 1   
   118  108  117 1   
   119  109  118 1   
   120  109  119 1   
   121  109  120 1   
   122  121  122 1   
   123  121  127 1   
   124  122  123 1   
   125  122  125 1   
   126  122  128 1   
   127  123  124 2   
   128  123  132 1   
   129  125  126 1   
   130  125  129 1   
   131  125  130 1   
   132  126  131 1   
   133  132  133 1   
   134  132  137 1   
   135  133  134 1   
   136  133  136 1   
   137  133  138 1   
   138  134  135 2   
   139  134  142 1   
   140  136  139 1   
   141  136  140 1   
   142  136  141 1   
   143  142  143 1   
   144  142  147 1   
   145  143  144 1   
   146  143  146 1   
   147  143  148 1   
   148  144  145 2   
   149  144  152 1   
   150  146  149 1   
   151  146  150 1   
   152  146  151 1   
   153  152  153 1   
   154  152  161 1   
   155  153  154 1   
   156  153  156 1   
   157  153  162 1   
   158  154  155 2   
   159  154  167 1   
   160  156  157 1   
   161  156  163 1   
   162  156  164 1   
   163  157  158 1   
   164  157  165 1   
   165  157  166 1   
   166  158  159 1   
   167  158  160 1   
   168  167  168 1   
   169  167  172 1   
   170  168  169 1   
   171  168  170 1   
   172  168  171 1   
   173  174  175 1   
   174  174  176 1   
   175  177  178 1   
   176  177  179 1   
@<TRIPOS>SUBSTRUCTURE
     1 MOL         1 TEMP              0 ****  ****    0 ROOT
