@<TRIPOS>MOLECULE
MOL
  175   173     1     0     0
SMALL
resp


@<TRIPOS>ATOM
      1 C1          0.8780    3.8800    5.6160 c3        1 MOL     -0.356633
      2 C2          0.3070    3.8210    4.1660 c         1 MOL      0.730695
      3 O1          1.1050    3.7760    3.2290 o         1 MOL     -0.554585
      4 H1          0.6760    2.9370    6.1240 hc        1 MOL      0.081031
      5 H2          1.9540    4.0480    5.5770 hc        1 MOL      0.081031
      6 H3          0.4020    4.6960    6.1620 hc        1 MOL      0.081031
      7 N1         -1.0200    3.8300    4.0970 n         1 MOL     -0.757637
      8 C3         -1.6610    3.5320    2.8160 c3        1 MOL      0.490534
      9 C4         -1.6840    4.7830    1.8430 c         1 MOL      0.428264
     10 O2         -1.5760    5.9330    2.2120 o         1 MOL     -0.551674
     11 C5         -3.0900    3.1580    2.9470 c3        1 MOL     -0.413133
     12 C6         -3.7640    2.6950    1.6380 c         1 MOL      0.669160
     13 O3         -4.8500    3.2020    1.2750 o         1 MOL     -0.628866
     14 O4         -3.0750    1.9480    0.8220 o         1 MOL     -0.628866
     15 H4         -1.5160    3.9960    4.9590 hn        1 MOL      0.357835
     16 H5         -1.0860    2.7820    2.2630 h1        1 MOL     -0.021244
     17 H6         -3.5820    4.0160    3.4090 hc        1 MOL      0.068366
     18 H7         -3.0160    2.2720    3.5770 hc        1 MOL      0.068366
     19 N2         -1.9530    4.4480    0.5820 n         1 MOL     -0.347347
     20 C7         -2.1750    5.4080   -0.5140 c3        1 MOL      0.247218
     21 C8         -3.1190    4.9600   -1.6670 c         1 MOL      0.447909
     22 O5         -3.2880    5.6770   -2.6090 o         1 MOL     -0.595823
     23 C9         -0.8940    5.9580   -1.1340 c3        1 MOL     -0.215630
     24 H8         -1.7310    3.4980    0.3180 hn        1 MOL      0.280387
     25 H9         -2.6490    6.2450    0.0060 h1        1 MOL      0.023513
     26 H10        -0.3870    5.1280   -1.6400 hc        1 MOL      0.044547
     27 H11        -1.1380    6.8600   -1.7060 hc        1 MOL      0.044547
     28 H12        -0.1610    6.3650   -0.4300 hc        1 MOL      0.044547
     29 N3         -3.8270    3.9090   -1.4880 n         1 MOL     -0.179654
     30 C10        -4.8090    3.4730   -2.5360 c3        1 MOL      0.166837
     31 C11        -6.1840    2.7480   -2.0420 c         1 MOL      0.178791
     32 O6         -7.1890    2.8910   -2.7420 o         1 MOL     -0.524499
     33 C12        -4.1760    2.4020   -3.5390 c3        1 MOL     -0.251408
     34 C13        -3.4770    1.1930   -2.8720 c         1 MOL      0.731310
     35 O7         -4.0350    0.6260   -1.9160 o         1 MOL     -0.714024
     36 O8         -2.2760    0.9590   -3.1120 o         1 MOL     -0.714024
     37 H13        -3.6380    3.4300   -0.6240 hn        1 MOL      0.044873
     38 H14        -5.1880    4.3400   -3.0620 h1        1 MOL      0.071569
     39 H15        -3.5260    2.9190   -4.2430 hc        1 MOL      0.056117
     40 H16        -4.9790    1.9450   -4.1140 hc        1 MOL      0.056117
     41 N4         -6.2330    2.1740   -0.8530 n         1 MOL      0.225959
     42 C14        -7.3730    1.4150   -0.3260 c3        1 MOL     -0.466816
     43 C15        -7.5200    0.0170   -0.9110 c         1 MOL      0.647717
     44 O9         -8.6010   -0.5610   -0.8070 o         1 MOL     -0.607820
     45 H17        -5.3780    2.2690   -0.3340 hn        1 MOL     -0.018795
     46 H18        -8.3270    1.8950   -0.5340 h1        1 MOL      0.151388
     47 H19        -7.1130    1.3920    0.7320 h1        1 MOL      0.151388
     48 N5         -6.5340   -0.5260   -1.6750 n         1 MOL     -0.399836
     49 C16        -6.4930   -1.9970   -2.0210 c3        1 MOL      0.018069
     50 C17        -6.4970   -2.9860   -0.8310 c         1 MOL      0.444449
     51 O10        -6.5730   -4.2020   -1.0810 o         1 MOL     -0.546792
     52 C18        -5.4050   -2.2530   -3.1460 c3        1 MOL     -0.123788
     53 C19        -3.9160   -2.3100   -2.6460 c         1 MOL      0.489362
     54 N6         -2.9880   -2.5750   -3.5330 n         1 MOL     -0.613098
     55 O11        -3.6060   -2.0940   -1.4980 o         1 MOL     -0.392387
     56 H20        -5.6440   -0.0660   -1.7480 hn        1 MOL      0.304773
     57 H21        -7.4580   -2.1750   -2.4960 h1        1 MOL      0.087435
     58 H22        -5.5860   -1.4520   -3.8580 hc        1 MOL      0.046079
     59 H23        -5.7780   -3.1890   -3.5730 hc        1 MOL      0.046079
     60 H24        -3.2150   -2.9640   -4.4440 hn        1 MOL      0.320373
     61 H25        -2.0400   -2.4860   -3.1980 hn        1 MOL      0.320373
     62 N7         -6.3600   -2.4980    0.3830 n         1 MOL     -0.195908
     63 C20        -6.4150   -3.2510    1.6880 c3        1 MOL     -0.396465
     64 C21        -5.0810   -3.7790    2.1730 c         1 MOL      0.594729
     65 O12        -5.0160   -4.3950    3.2420 o         1 MOL     -0.575419
     66 H26        -6.1340   -1.5080    0.4430 hn        1 MOL      0.219081
     67 H27        -7.1770   -4.0130    1.4870 h1        1 MOL      0.169187
     68 H28        -6.7190   -2.5460    2.4610 h1        1 MOL      0.169187
     69 N8         -3.9860   -3.6260    1.3910 n         1 MOL     -0.212407
     70 C22        -2.6860   -4.3050    1.6870 c3        1 MOL     -0.257764
     71 C23        -1.4230   -3.3950    1.4150 c         1 MOL      0.678035
     72 O13        -1.4730   -2.5770    0.5600 o         1 MOL     -0.653196
     73 C24        -2.5590   -5.5480    0.7850 c3        1 MOL      0.654993
     74 C25        -3.5780   -6.6590    1.0030 c3        1 MOL     -0.470487
     75 O14        -2.5540   -5.2710   -0.5820 oh        1 MOL     -0.629137
     76 H29        -4.0440   -3.0520    0.5600 hn        1 MOL      0.127714
     77 H30        -2.5920   -4.6630    2.7140 h1        1 MOL      0.090357
     78 H31        -1.6330   -6.0720    1.0320 h1        1 MOL     -0.102573
     79 H32        -2.2090   -4.3750   -0.6670 ho        1 MOL      0.362190
     80 H33        -3.4600   -7.0340    2.0170 hc        1 MOL      0.113979
     81 H34        -4.6310   -6.5400    0.7510 hc        1 MOL      0.113979
     82 H35        -3.1980   -7.3920    0.2780 hc        1 MOL      0.113979
     83 N9         -0.2880   -3.7160    2.1140 n         1 MOL     -0.484592
     84 C26         0.8970   -2.8740    2.0070 c3        1 MOL     -0.047831
     85 C27         1.5320   -3.1190    0.6530 c         1 MOL      0.575557
     86 O15         2.0250   -4.2030    0.3450 o         1 MOL     -0.609380
     87 C28         1.9230   -3.1710    3.2470 c3        1 MOL      0.281974
     88 C29         1.2640   -2.3670    4.4340 c3        1 MOL     -0.024451
     89 C30         3.3290   -2.7940    3.0430 c3        1 MOL     -0.362352
     90 C31         1.9420   -2.6700    5.7690 c3        1 MOL      0.033949
     91 H36        -0.2560   -4.4800    2.7660 hn        1 MOL      0.278198
     92 H37         0.6380   -1.8150    2.0710 h1        1 MOL     -0.041919
     93 H38         1.8980   -4.2380    3.4470 hc        1 MOL     -0.025136
     94 H39         0.2050   -2.6190    4.4320 hc        1 MOL      0.001941
     95 H40         1.4250   -1.3080    4.2400 hc        1 MOL      0.001941
     96 H41         3.9020   -2.8510    3.9730 hc        1 MOL      0.079942
     97 H42         3.7820   -3.4260    2.2780 hc        1 MOL      0.079942
     98 H43         3.3490   -1.7440    2.7440 hc        1 MOL      0.079942
     99 H44         1.4400   -2.1970    6.6120 hc        1 MOL     -0.019830
    100 H45         1.8440   -3.7540    5.9180 hc        1 MOL     -0.019830
    101 H46         3.0010   -2.4210    5.7810 hc        1 MOL     -0.019830
    102 N10         1.5200   -2.1300   -0.2470 n         1 MOL     -0.208740
    103 C32         2.3970   -2.0530   -1.4360 c3        1 MOL      0.055215
    104 C33         3.7360   -1.4440   -1.0600 c         1 MOL      0.567936
    105 O16         3.8480   -0.6700   -0.1210 o         1 MOL     -0.453329
    106 C34         1.8560   -1.2270   -2.5760 c3        1 MOL     -0.258333
    107 C35         0.3880   -1.4690   -2.9190 c         1 MOL      0.685081
    108 O17        -0.5600   -1.2120   -2.1190 o         1 MOL     -0.655374
    109 O18         0.1450   -1.9820   -4.0320 o         1 MOL     -0.655374
    110 H47         0.9010   -1.3550   -0.0740 hn        1 MOL      0.141813
    111 H48         2.6620   -3.0280   -1.8610 h1        1 MOL      0.057369
    112 H49         2.4740   -1.4830   -3.4360 hc        1 MOL      0.083114
    113 H50         1.9680   -0.1790   -2.3190 hc        1 MOL      0.083114
    114 N11         4.7840   -1.7050   -1.8560 n         1 MOL     -0.774671
    115 C36         6.2020   -1.4830   -1.5730 c3        1 MOL      0.442331
    116 C37         6.5320   -0.0100   -1.2380 c         1 MOL      0.292281
    117 O19         7.2950    0.1690   -0.2840 o         1 MOL     -0.480719
    118 C38         7.1330   -2.0960   -2.6400 c3        1 MOL     -0.410609
    119 C39         8.5810   -1.9070   -2.1670 ca        1 MOL      0.255277
    120 C40         9.0920   -2.5380   -1.0480 ca        1 MOL     -0.238535
    121 C41         9.4990   -1.1880   -2.9880 ca        1 MOL     -0.238535
    122 C42        10.4140   -2.2160   -0.5750 ca        1 MOL     -0.116839
    123 C43        10.8420   -1.0740   -2.6350 ca        1 MOL     -0.116839
    124 C44        11.2800   -1.5030   -1.3700 ca        1 MOL     -0.070281
    125 H51         4.7050   -2.3600   -2.6250 hn        1 MOL      0.360541
    126 H52         6.4670   -1.9940   -0.6410 h1        1 MOL      0.051730
    127 H53         6.9760   -1.5900   -3.5890 hc        1 MOL      0.110788
    128 H54         6.9620   -3.1660   -2.7610 hc        1 MOL      0.110788
    129 H55         8.3980   -3.0630   -0.4100 ha        1 MOL      0.131243
    130 H56         9.1360   -0.7260   -3.8870 ha        1 MOL      0.131243
    131 H57        10.8010   -2.5890    0.3600 ha        1 MOL      0.112459
    132 H58        11.5250   -0.5160   -3.2640 ha        1 MOL      0.112459
    133 H59        12.3100   -1.2900   -1.1300 ha        1 MOL      0.088228
    134 N12         6.0020    1.0480   -1.8760 n         1 MOL      0.026909
    135 C45         6.2930    2.4640   -1.4340 c3        1 MOL     -0.131736
    136 C46         5.6530    2.7680   -0.0840 c         1 MOL      0.356202
    137 O20         6.2070    3.5580    0.6550 o         1 MOL     -0.503114
    138 C47         5.6270    3.2180   -2.5270 c3        1 MOL      0.129331
    139 C48         5.6670    2.3150   -3.7960 c3        1 MOL     -0.220151
    140 C49         5.4840    0.9370   -3.2230 c3        1 MOL      0.239762
    141 H60         7.3670    2.6330   -1.3400 h1        1 MOL      0.082075
    142 H61         4.5940    3.4890   -2.2990 hc        1 MOL      0.008549
    143 H62         6.0910    4.1800   -2.7540 hc        1 MOL      0.008549
    144 H63         4.8650    2.5680   -4.4850 hc        1 MOL      0.053553
    145 H64         6.6500    2.4050   -4.2590 hc        1 MOL      0.053553
    146 H65         4.4970    0.4740   -3.2600 h1        1 MOL     -0.051110
    147 H66         6.2210    0.3150   -3.7210 h1        1 MOL     -0.051110
    148 N13         4.6630    1.9890    0.2800 n         1 MOL     -0.142649
    149 C50         4.1560    2.0430    1.6820 c3        1 MOL     -0.182708
    150 C51         5.1540    1.3880    2.6030 c         1 MOL      0.474873
    151 O21         5.3880    1.8810    3.6780 o         1 MOL     -0.547112
    152 C52         2.7450    1.4260    1.6840 c3        1 MOL      0.039483
    153 C53         1.9130    1.9180    0.4560 c3        1 MOL     -0.120833
    154 C54         0.4500    1.4780    0.4630 c         1 MOL      0.456314
    155 O22         0.0080    0.3780    0.9330 o         1 MOL     -0.615302
    156 O23        -0.4050    2.1280   -0.1910 o         1 MOL     -0.615302
    157 H67         4.3820    1.2220   -0.3230 hn        1 MOL      0.109856
    158 H68         4.0690    3.0600    2.0550 h1        1 MOL      0.144600
    159 H69         2.1610    1.5870    2.5810 hc        1 MOL      0.044023
    160 H70         2.8510    0.3380    1.6880 hc        1 MOL      0.044023
    161 H71         2.3170    1.5010   -0.4700 hc        1 MOL      0.074048
    162 H72         1.9250    3.0020    0.4060 hc        1 MOL      0.074048
    163 N14         5.8770    0.3730    2.1090 n         1 MOL     -0.011297
    164 C55         6.8160   -0.3020    2.9990 c3        1 MOL     -0.305224
    165 H73         6.2650   -0.9440    3.6870 h1        1 MOL      0.099269
    166 H74         7.5050   -0.9080    2.4110 h1        1 MOL      0.099269
    167 H75         7.3780    0.4400    3.5670 h1        1 MOL      0.099269
    168 H76         5.6370   -0.0520    1.2180 hn        1 MOL      0.105824
    169 Ca1        -2.0710   -0.1380   -0.4650 Ca        1 MOL      1.695069
    170 O24        -1.7750   -0.3100    2.6630 oh        1 MOL     -0.759655
    171 H77        -1.6330    0.0070    3.5590 ho        1 MOL      0.376931
    172 H78        -1.0150   -0.0260    2.1800 ho        1 MOL      0.376931
    173 O25        -4.2000   -0.4860    1.2780 oh        1 MOL     -0.759655
    174 H79        -3.6340   -0.4040    2.0490 ho        1 MOL      0.376931
    175 H80        -5.0430   -0.1480    1.5560 ho        1 MOL      0.376931
@<TRIPOS>BOND
     1    1    2 1   
     2    1    4 1   
     3    1    5 1   
     4    1    6 1   
     5    2    3 2   
     6    2    7 1   
     7    7    8 1   
     8    7   15 1   
     9    8    9 1   
    10    8   11 1   
    11    8   16 1   
    12    9   10 2   
    13    9   19 1   
    14   11   12 1   
    15   11   17 1   
    16   11   18 1   
    17   12   13 1   
    18   12   14 1   
    19   19   20 1   
    20   19   24 1   
    21   20   21 1   
    22   20   23 1   
    23   20   25 1   
    24   21   22 2   
    25   21   29 1   
    26   23   26 1   
    27   23   27 1   
    28   23   28 1   
    29   29   30 1   
    30   29   37 1   
    31   30   31 1   
    32   30   33 1   
    33   30   38 1   
    34   31   32 2   
    35   31   41 1   
    36   33   34 1   
    37   33   39 1   
    38   33   40 1   
    39   34   35 1   
    40   34   36 1   
    41   41   42 1   
    42   41   45 1   
    43   42   43 1   
    44   42   46 1   
    45   42   47 1   
    46   43   44 2   
    47   43   48 1   
    48   48   49 1   
    49   48   56 1   
    50   49   50 1   
    51   49   52 1   
    52   49   57 1   
    53   50   51 2   
    54   50   62 1   
    55   52   53 1   
    56   52   58 1   
    57   52   59 1   
    58   53   54 1   
    59   53   55 2   
    60   54   60 1   
    61   54   61 1   
    62   62   63 1   
    63   62   66 1   
    64   63   64 1   
    65   63   67 1   
    66   63   68 1   
    67   64   65 2   
    68   64   69 1   
    69   69   70 1   
    70   69   76 1   
    71   70   71 1   
    72   70   73 1   
    73   70   77 1   
    74   71   72 2   
    75   71   83 1   
    76   73   74 1   
    77   73   75 1   
    78   73   78 1   
    79   74   80 1   
    80   74   81 1   
    81   74   82 1   
    82   75   79 1   
    83   83   84 1   
    84   83   91 1   
    85   84   85 1   
    86   84   87 1   
    87   84   92 1   
    88   85   86 2   
    89   85  102 1   
    90   87   88 1   
    91   87   89 1   
    92   87   93 1   
    93   88   90 1   
    94   88   94 1   
    95   88   95 1   
    96   89   96 1   
    97   89   97 1   
    98   89   98 1   
    99   90   99 1   
   100   90  100 1   
   101   90  101 1   
   102  102  103 1   
   103  102  110 1   
   104  103  104 1   
   105  103  106 1   
   106  103  111 1   
   107  104  105 2   
   108  104  114 1   
   109  106  107 1   
   110  106  112 1   
   111  106  113 1   
   112  107  108 1   
   113  107  109 1   
   114  114  115 1   
   115  114  125 1   
   116  115  116 1   
   117  115  118 1   
   118  115  126 1   
   119  116  117 2   
   120  116  134 1   
   121  118  119 1   
   122  118  127 1   
   123  118  128 1   
   124  119  120 ar  
   125  119  121 ar  
   126  120  122 ar  
   127  120  129 1   
   128  121  123 ar  
   129  121  130 1   
   130  122  124 ar  
   131  122  131 1   
   132  123  124 ar  
   133  123  132 1   
   134  124  133 1   
   135  134  135 1   
   136  134  140 1   
   137  135  136 1   
   138  135  138 1   
   139  135  141 1   
   140  136  137 2   
   141  136  148 1   
   142  138  139 1   
   143  138  142 1   
   144  138  143 1   
   145  139  140 1   
   146  139  144 1   
   147  139  145 1   
   148  140  146 1   
   149  140  147 1   
   150  148  149 1   
   151  148  157 1   
   152  149  150 1   
   153  149  152 1   
   154  149  158 1   
   155  150  151 2   
   156  150  163 1   
   157  152  153 1   
   158  152  159 1   
   159  152  160 1   
   160  153  154 1   
   161  153  161 1   
   162  153  162 1   
   163  154  155 1   
   164  154  156 1   
   165  163  164 1   
   166  163  168 1   
   167  164  165 1   
   168  164  166 1   
   169  164  167 1   
   170  170  171 1   
   171  170  172 1   
   172  173  174 1   
   173  173  175 1   
@<TRIPOS>SUBSTRUCTURE
     1 MOL         1 TEMP              0 ****  ****    0 ROOT
