@<TRIPOS>MOLECULE
MOL
  182   178     1     0     0
SMALL
resp


@<TRIPOS>ATOM
      1 C1         -2.7030   -2.7940    4.7360 c3        1 MOL     -0.387124
      2 C2         -1.7960   -2.6550    3.4670 c         1 MOL      0.613351
      3 O1         -2.3400   -2.9170    2.3710 o         1 MOL     -0.585834
      4 H1         -3.5070   -3.5010    4.5330 hc        1 MOL      0.105985
      5 H2         -2.1050   -3.1550    5.5730 hc        1 MOL      0.105985
      6 H3         -3.1290   -1.8220    4.9860 hc        1 MOL      0.105985
      7 N1         -0.4960   -2.4930    3.5800 n         1 MOL     -0.477766
      8 C3          0.4040   -2.5280    2.4200 c3        1 MOL      0.040219
      9 C4          0.4820   -3.9590    1.7120 c         1 MOL      0.472355
     10 O2          0.8810   -4.9140    2.3330 o         1 MOL     -0.550233
     11 C5          1.7890   -1.9670    2.8910 c3        1 MOL     -0.144976
     12 C6          2.7790   -1.6670    1.8610 c         1 MOL      0.967667
     13 O3          3.8930   -1.1800    2.0490 o         1 MOL     -0.802420
     14 O4          2.3840   -1.7640    0.6860 o         1 MOL     -0.802420
     15 H4         -0.0570   -2.3510    4.4810 hn        1 MOL      0.328045
     16 H5         -0.0500   -1.8830    1.6680 h1        1 MOL     -0.071907
     17 H6          2.3140   -2.7190    3.4910 hc        1 MOL      0.029732
     18 H7          1.6810   -1.1050    3.5580 hc        1 MOL      0.029732
     19 N2          0.1870   -3.9210    0.4250 n         1 MOL     -0.034725
     20 C7          0.1860   -5.0640   -0.4970 c3        1 MOL     -0.182819
     21 C8          1.4230   -5.2650   -1.2510 c         1 MOL      0.607298
     22 O5          1.5570   -6.3790   -1.7950 o         1 MOL     -0.568375
     23 C9         -1.0580   -4.9370   -1.3620 c3        1 MOL     -0.350657
     24 C10        -2.3500   -5.2110   -0.5730 c3        1 MOL      0.159761
     25 C11        -2.5910   -6.7350   -0.2850 c3        1 MOL     -0.086628
     26 C12        -3.7700   -7.1370    0.5770 c3        1 MOL     -0.121999
     27 N3         -3.4730   -6.9040    2.0330 n4        1 MOL     -0.210385
     28 H8         -0.0410   -3.0340    0.0210 hn        1 MOL      0.171088
     29 H9          0.0230   -5.8870    0.2160 h1        1 MOL      0.087845
     30 H10        -0.9790   -5.5780   -2.2380 hc        1 MOL      0.128354
     31 H11        -1.1060   -3.9180   -1.7470 hc        1 MOL      0.128354
     32 H12        -3.1680   -4.8360   -1.1760 hc        1 MOL      0.023876
     33 H13        -2.3380   -4.6970    0.3820 hc        1 MOL      0.023876
     34 H14        -1.6840   -7.0490    0.2310 hc        1 MOL      0.071725
     35 H15        -2.6960   -7.2410   -1.2410 hc        1 MOL      0.071725
     36 H16        -3.8570   -8.2250    0.5460 hx        1 MOL      0.127067
     37 H17        -4.6570   -6.5390    0.3530 hx        1 MOL      0.127067
     38 H18        -3.7020   -5.9710    2.3380 hn        1 MOL      0.292191
     39 H19        -3.9000   -7.5510    2.6870 hn        1 MOL      0.292191
     40 H20        -2.4860   -6.9920    2.2180 hn        1 MOL      0.292191
     41 N4          2.4850   -4.3800   -1.1780 n         1 MOL     -0.263496
     42 C13         3.7810   -4.6220   -1.8330 c3        1 MOL      0.030754
     43 C14         4.9100   -4.2600   -0.8450 c         1 MOL      0.444916
     44 O6          6.1190   -4.3810   -1.2370 o         1 MOL     -0.507865
     45 C15         3.9050   -3.8810   -3.1970 c3        1 MOL     -0.320851
     46 C16         3.8060   -2.4080   -3.1300 c         1 MOL      0.838187
     47 O7          4.0810   -1.7030   -4.1540 o         1 MOL     -0.727321
     48 O8          3.4900   -1.8380   -2.0140 o         1 MOL     -0.727321
     49 H21         2.4990   -3.6220   -0.5050 hn        1 MOL      0.018071
     50 H22         3.9090   -5.7040   -1.9330 h1        1 MOL      0.111528
     51 H23         3.0370   -4.1910   -3.7900 hc        1 MOL      0.097340
     52 H24         4.8830   -4.0700   -3.6300 hc        1 MOL      0.097340
     53 N5          4.6610   -3.8150    0.4150 n         1 MOL     -0.365333
     54 C17         5.7340   -3.3950    1.3410 c3        1 MOL     -0.094431
     55 C18         6.5220   -2.1670    0.9670 c         1 MOL      0.499446
     56 O9          7.6140   -1.9670    1.5310 o         1 MOL     -0.573265
     57 H25         3.7090   -3.7290    0.7360 hn        1 MOL      0.281124
     58 H26         6.4330   -4.2220    1.4100 h1        1 MOL      0.091711
     59 H27         5.2810   -3.2100    2.3110 h1        1 MOL      0.091711
     60 N6          6.0140   -1.3750    0.0420 n         1 MOL     -0.172457
     61 C19         6.7060   -0.1820   -0.4410 c3        1 MOL     -0.186370
     62 C20         6.6690    1.0520    0.4650 c         1 MOL      0.397425
     63 O10         7.2070    2.1170    0.1880 o         1 MOL     -0.458117
     64 C21         6.3130    0.0620   -1.9440 c3        1 MOL     -0.269511
     65 C22         4.9660    0.8020   -2.0440 c         1 MOL      0.837970
     66 N7          4.7040    1.3770   -3.2090 n         1 MOL     -0.826940
     67 O11         4.1160    0.8590   -1.2350 o         1 MOL     -0.746934
     68 H28         5.1720   -1.7580   -0.3540 hn        1 MOL      0.257826
     69 H29         7.7710   -0.4220   -0.3260 h1        1 MOL      0.155360
     70 H30         6.2620   -0.9250   -2.4110 hc        1 MOL      0.121973
     71 H31         7.0580    0.6680   -2.4660 hc        1 MOL      0.121973
     72 H32         5.3560    1.3800   -3.9840 hn        1 MOL      0.358497
     73 H33         3.8750    1.9420   -3.2710 hn        1 MOL      0.358497
     74 N8          5.9630    0.8790    1.6100 n         1 MOL     -0.210571
     75 C23         5.8210    1.8930    2.6260 c3        1 MOL     -0.344537
     76 C24         4.6600    2.8810    2.3610 c         1 MOL      0.485629
     77 O12         4.5270    3.8740    3.0960 o         1 MOL     -0.564230
     78 H34         5.4120    0.0410    1.6820 hn        1 MOL      0.338369
     79 H35         6.7420    2.4770    2.5900 h1        1 MOL      0.162656
     80 H36         5.6420    1.4060    3.5770 h1        1 MOL      0.162656
     81 N9          3.8530    2.7130    1.2740 n         1 MOL      0.042795
     82 C25         2.6610    3.4270    0.8340 c3        1 MOL      0.142974
     83 C26         1.3660    2.6270    0.8850 c         1 MOL      0.136571
     84 O13         1.3210    1.4370    0.5400 o         1 MOL     -0.590348
     85 C27         2.8240    4.0900   -0.4940 c3        1 MOL      0.184754
     86 C28         3.9450    5.0670   -0.4630 ca        1 MOL     -0.225673
     87 C29         5.2640    4.7330   -0.8150 ca        1 MOL      0.000814
     88 C30         3.5860    6.3370    0.0500 ca        1 MOL      0.000814
     89 C31         6.2530    5.7380   -0.6240 ca        1 MOL     -0.420234
     90 C32         4.6010    7.2920    0.2180 ca        1 MOL     -0.420234
     91 C33         5.9870    6.9770   -0.0790 ca        1 MOL      0.532650
     92 O14         6.9640    7.8010    0.1340 oh        1 MOL     -0.487169
     93 H37         4.0670    1.8210    0.8460 hn        1 MOL      0.084275
     94 H38         2.4970    4.2970    1.4810 h1        1 MOL      0.000282
     95 H39         1.9310    4.6610   -0.7290 hc        1 MOL     -0.023992
     96 H40         3.0120    3.3650   -1.2970 hc        1 MOL     -0.023992
     97 H41         5.5270    3.7700   -1.2260 ha        1 MOL      0.106634
     98 H42         2.6060    6.6630    0.3890 ha        1 MOL      0.106634
     99 H43         7.2650    5.4490   -0.8530 ha        1 MOL      0.161012
    100 H44         4.4320    8.2640    0.6680 ha        1 MOL      0.161012
    101 H45         6.6650    8.7180    0.1580 ho        1 MOL      0.350209
    102 N10         0.2160    3.2800    1.2870 n         1 MOL     -0.193571
    103 C34        -1.1620    2.7040    1.2060 c3        1 MOL     -0.293192
    104 C35        -2.1080    3.6920    0.5040 c         1 MOL      0.421806
    105 O15        -2.0400    4.9510    0.6650 o         1 MOL     -0.526683
    106 C36        -1.6490    2.0430    2.5010 c3        1 MOL      0.064882
    107 C37        -2.0540    3.0800    3.6740 c3        1 MOL     -0.080592
    108 C38        -0.7590    0.8830    2.9480 c3        1 MOL     -0.079107
    109 C39        -2.6510    2.3590    4.8710 c3        1 MOL     -0.094369
    110 H46         0.3460    4.2090    1.6670 hn        1 MOL      0.266721
    111 H47        -1.0010    1.8520    0.5420 h1        1 MOL      0.285305
    112 H48        -2.5950    1.5980    2.1750 hc        1 MOL     -0.036221
    113 H49        -2.7360    3.8030    3.2260 hc        1 MOL      0.061644
    114 H50        -1.1410    3.5980    3.9700 hc        1 MOL      0.061644
    115 H51         0.2480    1.2510    3.1620 hc        1 MOL      0.056679
    116 H52        -1.1190    0.3510    3.8280 hc        1 MOL      0.056679
    117 H53        -0.7090    0.0740    2.2330 hc        1 MOL      0.056679
    118 H54        -3.0850    3.0970    5.5480 hc        1 MOL      0.022781
    119 H55        -3.4800    1.7290    4.5670 hc        1 MOL      0.022781
    120 H56        -1.8880    1.7910    5.4100 hc        1 MOL      0.022781
    121 N11        -3.0670    3.1440   -0.1890 n         1 MOL     -0.075865
    122 C40        -4.0710    3.9050   -0.8690 c3        1 MOL     -0.066865
    123 C41        -5.4290    3.5840   -0.3110 c         1 MOL      0.495503
    124 O16        -5.6640    2.8040    0.6060 o         1 MOL     -0.457368
    125 C42        -4.0150    3.4860   -2.3950 c3        1 MOL      0.002367
    126 O17        -4.2160    2.0990   -2.4690 oh        1 MOL     -0.479768
    127 H57        -3.0450    2.1670   -0.4690 hn        1 MOL      0.121718
    128 H58        -3.8050    4.9540   -0.8300 h1        1 MOL      0.075442
    129 H59        -2.9910    3.6860   -2.7290 h1        1 MOL      0.066123
    130 H60        -4.6760    4.0710   -3.0290 h1        1 MOL      0.066123
    131 H61        -3.3880    1.6970   -2.2400 ho        1 MOL      0.336546
    132 N12        -6.4640    4.1210   -0.9350 n         1 MOL     -0.449011
    133 C43        -7.8690    3.8430   -0.5430 c3        1 MOL      0.167395
    134 C44        -8.3080    2.4440   -0.8790 c         1 MOL      0.449577
    135 O18        -8.9660    1.8640   -0.0560 o         1 MOL     -0.521270
    136 C45        -8.8740    4.7810   -1.3090 c3        1 MOL     -0.415079
    137 H62        -6.2610    4.9660   -1.4520 hn        1 MOL      0.287999
    138 H63        -7.9420    3.9360    0.5480 h1        1 MOL      0.088508
    139 H64        -8.5250    4.9720   -2.3180 hc        1 MOL      0.120432
    140 H65        -9.9020    4.4410   -1.2260 hc        1 MOL      0.120432
    141 H66        -8.8320    5.8040   -0.9280 hc        1 MOL      0.120432
    142 N13        -7.8570    1.8330   -1.9630 n         1 MOL     -0.342921
    143 C46        -8.0530    0.4540   -2.4440 c3        1 MOL      0.152359
    144 C47        -7.3080   -0.6060   -1.6510 c         1 MOL      0.309417
    145 O19        -7.8350   -1.7130   -1.4940 o         1 MOL     -0.537411
    146 C48        -7.7720    0.3410   -3.9180 c3        1 MOL     -0.159057
    147 H67        -7.4480    2.4610   -2.6420 hn        1 MOL      0.246785
    148 H68        -9.1250    0.2720   -2.3760 h1        1 MOL      0.076949
    149 H69        -7.9830   -0.6780   -4.2210 hc        1 MOL      0.046472
    150 H70        -8.3710    1.1010   -4.4180 hc        1 MOL      0.046472
    151 H71        -6.7070    0.5700   -4.0690 hc        1 MOL      0.046472
    152 N14        -6.2280   -0.3380   -0.9780 n         1 MOL      0.187969
    153 C49        -5.5800   -1.3170   -0.0680 c3        1 MOL     -0.144357
    154 C50        -6.2540   -1.2340    1.2990 c         1 MOL      0.446972
    155 O20        -6.6400   -2.2270    1.9190 o         1 MOL     -0.543820
    156 C51        -4.0790   -0.9300    0.0410 c3        1 MOL      0.042221
    157 C52        -3.2440   -1.2770   -1.1840 c3        1 MOL     -0.059458
    158 C53        -1.9520   -0.4680   -1.2850 c         1 MOL      0.770745
    159 O21        -2.0270    0.5460   -2.0550 o         1 MOL     -0.716150
    160 O22        -0.9000   -0.7440   -0.7440 o         1 MOL     -0.716150
    161 H72        -5.8220    0.5830   -0.9920 hn        1 MOL     -0.083178
    162 H73        -5.7120   -2.3690   -0.3570 h1        1 MOL      0.099365
    163 H74        -3.5970   -1.3590    0.9230 hc        1 MOL      0.026963
    164 H75        -4.0200    0.1490    0.1640 hc        1 MOL      0.026963
    165 H76        -3.8900   -1.0950   -2.0500 hc        1 MOL     -0.024135
    166 H77        -3.0860   -2.3420   -1.0680 hc        1 MOL     -0.024135
    167 N15        -6.5340   -0.0510    1.8810 n         1 MOL     -0.182964
    168 C54        -7.2900    0.1050    3.1580 c3        1 MOL     -0.177610
    169 H78        -7.9230   -0.7690    3.3150 h1        1 MOL      0.094084
    170 H79        -6.5880    0.1990    3.9880 h1        1 MOL      0.094084
    171 H80        -7.9120    0.9990    3.1060 h1        1 MOL      0.094084
    172 H81        -6.3610    0.7910    1.3590 hn        1 MOL      0.179525
    173 Ca1         1.6100   -0.3950   -1.3260 Ca        1 MOL      1.874237
    174 O23         0.2700    1.8490   -1.9270 oh        1 MOL     -0.904551
    175 H82         0.0970    2.7490   -2.1980 ho        1 MOL      0.427708
    176 H83        -0.5490    1.3920   -2.0670 ho        1 MOL      0.427708
    177 O24         2.1820    0.2670   -3.8420 oh        1 MOL     -0.904551
    178 H84         2.3550    1.0330   -4.3920 ho        1 MOL      0.427708
    179 H85         2.9560   -0.2920   -3.9590 ho        1 MOL      0.427708
    180 O25         0.7330   -2.0700   -3.0770 oh        1 MOL     -0.904551
    181 H86         0.7470   -1.5450   -3.8750 ho        1 MOL      0.427708
    182 H87         0.6780   -2.9740   -3.3930 ho        1 MOL      0.427708
@<TRIPOS>BOND
     1    1    2 1   
     2    1    4 1   
     3    1    5 1   
     4    1    6 1   
     5    2    3 2   
     6    2    7 1   
     7    7    8 1   
     8    7   15 1   
     9    8    9 1   
    10    8   11 1   
    11    8   16 1   
    12    9   10 2   
    13    9   19 1   
    14   11   12 1   
    15   11   17 1   
    16   11   18 1   
    17   12   13 1   
    18   12   14 1   
    19   19   20 1   
    20   19   28 1   
    21   20   21 1   
    22   20   23 1   
    23   20   29 1   
    24   21   22 2   
    25   21   41 1   
    26   23   24 1   
    27   23   30 1   
    28   23   31 1   
    29   24   25 1   
    30   24   32 1   
    31   24   33 1   
    32   25   26 1   
    33   25   34 1   
    34   25   35 1   
    35   26   27 1   
    36   26   36 1   
    37   26   37 1   
    38   27   38 1   
    39   27   39 1   
    40   27   40 1   
    41   41   42 1   
    42   41   49 1   
    43   42   43 1   
    44   42   45 1   
    45   42   50 1   
    46   43   44 2   
    47   43   53 1   
    48   45   46 1   
    49   45   51 1   
    50   45   52 1   
    51   46   47 1   
    52   46   48 1   
    53   53   54 1   
    54   53   57 1   
    55   54   55 1   
    56   54   58 1   
    57   54   59 1   
    58   55   56 2   
    59   55   60 1   
    60   60   61 1   
    61   60   68 1   
    62   61   62 1   
    63   61   64 1   
    64   61   69 1   
    65   62   63 2   
    66   62   74 1   
    67   64   65 1   
    68   64   70 1   
    69   64   71 1   
    70   65   66 1   
    71   65   67 2   
    72   66   72 1   
    73   66   73 1   
    74   74   75 1   
    75   74   78 1   
    76   75   76 1   
    77   75   79 1   
    78   75   80 1   
    79   76   77 2   
    80   76   81 1   
    81   81   82 1   
    82   81   93 1   
    83   82   83 1   
    84   82   85 1   
    85   82   94 1   
    86   83   84 2   
    87   83  102 1   
    88   85   86 1   
    89   85   95 1   
    90   85   96 1   
    91   86   87 ar  
    92   86   88 ar  
    93   87   89 ar  
    94   87   97 1   
    95   88   90 ar  
    96   88   98 1   
    97   89   91 ar  
    98   89   99 1   
    99   90   91 ar  
   100   90  100 1   
   101   91   92 1   
   102   92  101 1   
   103  102  103 1   
   104  102  110 1   
   105  103  104 1   
   106  103  106 1   
   107  103  111 1   
   108  104  105 2   
   109  104  121 1   
   110  106  107 1   
   111  106  108 1   
   112  106  112 1   
   113  107  109 1   
   114  107  113 1   
   115  107  114 1   
   116  108  115 1   
   117  108  116 1   
   118  108  117 1   
   119  109  118 1   
   120  109  119 1   
   121  109  120 1   
   122  121  122 1   
   123  121  127 1   
   124  122  123 1   
   125  122  125 1   
   126  122  128 1   
   127  123  124 2   
   128  123  132 1   
   129  125  126 1   
   130  125  129 1   
   131  125  130 1   
   132  126  131 1   
   133  132  133 1   
   134  132  137 1   
   135  133  134 1   
   136  133  136 1   
   137  133  138 1   
   138  134  135 2   
   139  134  142 1   
   140  136  139 1   
   141  136  140 1   
   142  136  141 1   
   143  142  143 1   
   144  142  147 1   
   145  143  144 1   
   146  143  146 1   
   147  143  148 1   
   148  144  145 2   
   149  144  152 1   
   150  146  149 1   
   151  146  150 1   
   152  146  151 1   
   153  152  153 1   
   154  152  161 1   
   155  153  154 1   
   156  153  156 1   
   157  153  162 1   
   158  154  155 2   
   159  154  167 1   
   160  156  157 1   
   161  156  163 1   
   162  156  164 1   
   163  157  158 1   
   164  157  165 1   
   165  157  166 1   
   166  158  159 1   
   167  158  160 1   
   168  167  168 1   
   169  167  172 1   
   170  168  169 1   
   171  168  170 1   
   172  168  171 1   
   173  174  175 1   
   174  174  176 1   
   175  177  178 1   
   176  177  179 1   
   177  180  181 1   
   178  180  182 1   
@<TRIPOS>SUBSTRUCTURE
     1 MOL         1 TEMP              0 ****  ****    0 ROOT
