@<TRIPOS>MOLECULE
MOL
  175   173     1     0     0
SMALL
resp


@<TRIPOS>ATOM
      1 C1          0.6220    4.0000    5.8450 c3        1 MOL     -0.259983
      2 C2          0.1090    3.9560    4.3940 c         1 MOL      0.683586
      3 O1          0.8790    4.2480    3.4780 o         1 MOL     -0.552831
      4 H1          1.7090    3.9230    5.8480 hc        1 MOL      0.061237
      5 H2          0.3230    4.9400    6.3080 hc        1 MOL      0.061237
      6 H3          0.1970    3.1670    6.4070 hc        1 MOL      0.061237
      7 N1         -1.1340    3.6390    4.1050 n         1 MOL     -0.562772
      8 C3         -1.6190    3.4550    2.7420 c3        1 MOL      0.056063
      9 C4         -1.6030    4.6210    1.7230 c         1 MOL      0.599370
     10 O2         -1.6820    5.7850    2.1180 o         1 MOL     -0.573221
     11 C5         -3.0750    3.0350    2.9390 c3        1 MOL     -0.515183
     12 C6         -3.8380    2.7330    1.6900 c         1 MOL      0.841794
     13 O3         -5.0810    2.8910    1.7320 o         1 MOL     -0.691151
     14 O4         -3.3720    2.1780    0.6680 o         1 MOL     -0.691151
     15 H4         -1.7900    3.5200    4.8640 hn        1 MOL      0.318096
     16 H5         -1.0010    2.6960    2.2690 h1        1 MOL      0.101100
     17 H6         -3.5300    3.9260    3.3880 hc        1 MOL      0.122051
     18 H7         -3.0640    2.1660    3.5920 hc        1 MOL      0.122051
     19 N2         -1.6250    4.3820    0.4030 n         1 MOL     -0.507642
     20 C7         -1.5910    5.3670   -0.7080 c3        1 MOL      0.085809
     21 C8         -2.4360    4.9070   -1.9000 c         1 MOL      0.473414
     22 O5         -2.2690    5.5500   -2.9650 o         1 MOL     -0.549232
     23 C9         -0.1230    5.6410   -1.0300 c3        1 MOL      0.012377
     24 H8         -1.5280    3.4110    0.1300 hn        1 MOL      0.519476
     25 H9         -1.9250    6.3270   -0.3040 h1        1 MOL      0.053387
     26 H10        -0.0510    6.2220   -1.9500 hc        1 MOL     -0.005791
     27 H11         0.3060    6.2380   -0.2190 hc        1 MOL     -0.005791
     28 H12         0.4280    4.7060   -1.1260 hc        1 MOL     -0.005791
     29 N3         -3.3370    3.9110   -1.8220 n         1 MOL     -0.349419
     30 C10        -4.2070    3.5170   -2.9440 c3        1 MOL      0.201882
     31 C11        -5.5310    2.9230   -2.4770 c         1 MOL      0.283661
     32 O6         -6.4830    3.0770   -3.2740 o         1 MOL     -0.536134
     33 C12        -3.4870    2.5500   -3.8710 c3        1 MOL     -0.205452
     34 C13        -2.8900    1.3760   -2.9950 c         1 MOL      0.653869
     35 O7         -3.6740    0.7270   -2.2620 o         1 MOL     -0.673612
     36 O8         -1.6780    1.2450   -2.8410 o         1 MOL     -0.673612
     37 H13        -3.4410    3.3300   -1.0030 hn        1 MOL      0.094236
     38 H14        -4.3890    4.4110   -3.5510 h1        1 MOL      0.047657
     39 H15        -2.7850    3.0730   -4.5150 hc        1 MOL      0.047503
     40 H16        -4.2500    2.0920   -4.5050 hc        1 MOL      0.047503
     41 N4         -5.7050    2.4020   -1.2690 n         1 MOL     -0.084121
     42 C14        -6.9340    1.7070   -0.7670 c3        1 MOL     -0.275435
     43 C15        -7.1840    0.3350   -1.2760 c         1 MOL      0.452204
     44 O9         -8.3070   -0.0790   -1.4620 o         1 MOL     -0.576913
     45 H17        -4.9260    2.4460   -0.6410 hn        1 MOL      0.145333
     46 H18        -7.8770    2.2020   -0.9680 h1        1 MOL      0.133731
     47 H19        -6.7870    1.6010    0.3070 h1        1 MOL      0.133731
     48 N5         -6.1810   -0.3510   -1.8410 n         1 MOL     -0.076915
     49 C16        -6.3550   -1.7070   -2.4530 c3        1 MOL     -0.152508
     50 C17        -6.6500   -2.7730   -1.3870 c         1 MOL      0.589900
     51 O10        -7.1040   -3.8590   -1.6750 o         1 MOL     -0.558630
     52 C18        -5.0820   -2.2220   -3.2580 c3        1 MOL     -0.075962
     53 C19        -3.7270   -2.2500   -2.5120 c         1 MOL      0.392256
     54 N6         -2.6150   -2.3810   -3.1870 n         1 MOL     -0.594956
     55 O11        -3.6650   -2.2090   -1.2290 o         1 MOL     -0.264760
     56 H20        -5.2960    0.0810   -2.0500 hn        1 MOL      0.208821
     57 H21        -7.1840   -1.7540   -3.1650 h1        1 MOL      0.106821
     58 H22        -4.9600   -1.5350   -4.0980 hc        1 MOL      0.038854
     59 H23        -5.2920   -3.2140   -3.6760 hc        1 MOL      0.038854
     60 H24        -2.6580   -2.3180   -4.1940 hn        1 MOL      0.328314
     61 H25        -1.7860   -2.5700   -2.6400 hn        1 MOL      0.328314
     62 N7         -6.3000   -2.4310   -0.1020 n         1 MOL     -0.435029
     63 C20        -6.6850   -3.2000    1.0860 c3        1 MOL      0.026091
     64 C21        -5.4610   -3.7760    1.7930 c         1 MOL      0.413169
     65 O12        -5.6300   -4.4570    2.7950 o         1 MOL     -0.594137
     66 H26        -5.7300   -1.6160    0.0470 hn        1 MOL      0.233329
     67 H27        -7.4080   -3.9940    0.8820 h1        1 MOL      0.069017
     68 H28        -7.2670   -2.6470    1.8220 h1        1 MOL      0.069017
     69 N8         -4.2470   -3.5870    1.2820 n         1 MOL     -0.008769
     70 C22        -2.9800   -4.2610    1.6740 c3        1 MOL     -0.092708
     71 C23        -1.7060   -3.3420    1.6590 c         1 MOL      0.384479
     72 O13        -1.7470   -2.3800    0.9140 o         1 MOL     -0.505883
     73 C24        -2.6660   -5.4050    0.7620 c3        1 MOL      0.536925
     74 C25        -3.7510   -6.4360    0.6920 c3        1 MOL     -0.448142
     75 O14        -2.5370   -4.9710   -0.5340 oh        1 MOL     -0.632093
     76 H29        -4.3080   -2.8980    0.5540 hn        1 MOL     -0.093826
     77 H30        -3.0430   -4.6160    2.7050 h1        1 MOL      0.044877
     78 H31        -1.7440   -5.8490    1.1360 h1        1 MOL     -0.070524
     79 H32        -2.0420   -4.1490   -0.5660 ho        1 MOL      0.383037
     80 H33        -3.8770   -6.8630    1.6790 hc        1 MOL      0.112289
     81 H34        -4.7030   -6.0380    0.3420 hc        1 MOL      0.112289
     82 H35        -3.4270   -7.2230    0.0090 hc        1 MOL      0.112289
     83 N9         -0.6070   -3.7580    2.1860 n         1 MOL     -0.366120
     84 C26         0.6200   -2.9790    2.1900 c3        1 MOL      0.036297
     85 C27         1.3350   -3.3000    0.8760 c         1 MOL      0.600115
     86 O15         1.4620   -4.4180    0.4080 o         1 MOL     -0.592083
     87 C28         1.5410   -3.1320    3.3890 c3        1 MOL     -0.023472
     88 C29         1.1060   -2.0900    4.4890 c3        1 MOL      0.227860
     89 C30         3.0030   -3.0080    2.9370 c3        1 MOL     -0.040952
     90 C31         1.9590   -2.1090    5.7010 c3        1 MOL     -0.197535
     91 H36        -0.6130   -4.6810    2.5990 hn        1 MOL      0.257776
     92 H37         0.2510   -1.9590    2.1650 h1        1 MOL     -0.100884
     93 H38         1.3770   -4.1200    3.8450 hc        1 MOL      0.026177
     94 H39         0.1540   -2.4140    4.9170 hc        1 MOL     -0.038835
     95 H40         0.9470   -1.0550    4.1970 hc        1 MOL     -0.038835
     96 H41         3.5990   -2.9190    3.8470 hc        1 MOL     -0.008076
     97 H42         3.3520   -3.8760    2.3860 hc        1 MOL     -0.008076
     98 H43         3.1480   -2.1140    2.3230 hc        1 MOL     -0.008076
     99 H44         2.8540   -1.5370    5.4390 hc        1 MOL      0.033499
    100 H45         1.4400   -1.6570    6.5450 hc        1 MOL      0.033499
    101 H46         2.1320   -3.1640    5.9310 hc        1 MOL      0.033499
    102 N10         1.7820   -2.2410    0.2120 n         1 MOL     -0.200849
    103 C32         2.5170   -2.2490   -0.9800 c3        1 MOL      0.044564
    104 C33         3.9540   -1.7680   -0.7350 c         1 MOL      0.376745
    105 O16         4.2500   -1.2360    0.3310 o         1 MOL     -0.327978
    106 C34         1.8240   -1.3080   -1.9660 c3        1 MOL     -0.347686
    107 C35         0.4610   -1.8100   -2.3760 c         1 MOL      0.713425
    108 O17        -0.5210   -1.4000   -1.6600 o         1 MOL     -0.664001
    109 O18         0.3340   -2.6460   -3.2540 o         1 MOL     -0.664001
    110 H47         1.4670   -1.3550    0.5500 hn        1 MOL      0.262080
    111 H48         2.6120   -3.2510   -1.4060 h1        1 MOL      0.089292
    112 H49         2.4530   -1.2280   -2.8560 hc        1 MOL      0.106161
    113 H50         1.8260   -0.2810   -1.6180 hc        1 MOL      0.106161
    114 N11         4.9680   -1.8880   -1.5960 n         1 MOL     -0.669389
    115 C36         6.4010   -1.5740   -1.3330 c3        1 MOL      0.521573
    116 C37         6.6860   -0.1060   -1.0100 c         1 MOL      0.263292
    117 O19         7.3820    0.1900   -0.0260 o         1 MOL     -0.488661
    118 C38         7.2140   -2.1750   -2.4820 c3        1 MOL     -0.163419
    119 C39         8.6710   -1.8050   -2.3880 ca        1 MOL      0.037980
    120 C40         9.4510   -1.9800   -1.2000 ca        1 MOL     -0.160619
    121 C41         9.2730   -1.3180   -3.5730 ca        1 MOL     -0.160619
    122 C42        10.7870   -1.5550   -1.1820 ca        1 MOL     -0.058422
    123 C43        10.6230   -0.9970   -3.5540 ca        1 MOL     -0.058422
    124 C44        11.3960   -1.0750   -2.3660 ca        1 MOL     -0.180382
    125 H51         4.6850   -2.3430   -2.4420 hn        1 MOL      0.316931
    126 H52         6.7110   -2.1420   -0.4610 h1        1 MOL      0.013230
    127 H53         6.7390   -1.8820   -3.4200 hc        1 MOL      0.044096
    128 H54         7.0670   -3.2470   -2.3610 hc        1 MOL      0.044096
    129 H55         8.9450   -2.3580   -0.3310 ha        1 MOL      0.117565
    130 H56         8.7370   -1.3150   -4.5100 ha        1 MOL      0.117565
    131 H57        11.4410   -1.8400   -0.3700 ha        1 MOL      0.092776
    132 H58        11.0370   -0.6510   -4.4970 ha        1 MOL      0.092776
    133 H59        12.4510   -0.8240   -2.3550 ha        1 MOL      0.119634
    134 N12         6.0940    0.8790   -1.7420 n         1 MOL      0.032175
    135 C45         6.0590    2.3000   -1.3530 c3        1 MOL      0.028355
    136 C46         5.5490    2.5260    0.0530 c         1 MOL      0.286903
    137 O20         5.8380    3.5710    0.5840 o         1 MOL     -0.482564
    138 C47         4.9700    2.8110   -2.2780 c3        1 MOL     -0.194613
    139 C48         5.3730    2.2090   -3.5740 c3        1 MOL      0.106302
    140 C49         5.6690    0.7270   -3.1320 c3        1 MOL     -0.058174
    141 H60         7.0770    2.6770   -1.4660 h1        1 MOL      0.067108
    142 H61         3.9780    2.4140   -2.0330 hc        1 MOL      0.095575
    143 H62         4.9010    3.8950   -2.2720 hc        1 MOL      0.095575
    144 H63         4.6710    2.3510   -4.3980 hc        1 MOL     -0.007014
    145 H64         6.3630    2.6040   -3.8290 hc        1 MOL     -0.007014
    146 H65         4.6940    0.2490   -3.1900 h1        1 MOL      0.007883
    147 H66         6.5250    0.3420   -3.6820 h1        1 MOL      0.007883
    148 N13         4.5980    1.6880    0.5350 n         1 MOL     -0.090846
    149 C50         3.9360    1.7460    1.8990 c3        1 MOL     -0.079891
    150 C51         4.5640    0.9650    2.9960 c         1 MOL      0.448570
    151 O21         4.6640    1.3790    4.1550 o         1 MOL     -0.578533
    152 C52         2.4600    1.3720    1.8430 c3        1 MOL     -0.038758
    153 C53         1.6930    2.0140    0.7450 c3        1 MOL      0.242077
    154 C54         0.3100    1.4520    0.6020 c         1 MOL      0.290256
    155 O22        -0.0720    0.3800    1.1230 o         1 MOL     -0.611009
    156 O23        -0.4440    2.0150   -0.2080 o         1 MOL     -0.611009
    157 H67         4.1660    1.0140   -0.0830 hn        1 MOL      0.125303
    158 H68         4.0110    2.8020    2.1850 h1        1 MOL      0.099902
    159 H69         1.9930    1.7670    2.7490 hc        1 MOL      0.019421
    160 H70         2.4220    0.2950    1.7300 hc        1 MOL      0.019421
    161 H71         2.2680    1.9880   -0.1810 hc        1 MOL     -0.035208
    162 H72         1.5420    3.0820    0.9200 hc        1 MOL     -0.035208
    163 N14         5.3050   -0.0650    2.6450 n         1 MOL      0.057839
    164 C55         6.2500   -0.7090    3.5240 c3        1 MOL     -0.238254
    165 H73         7.1820   -0.8870    2.9870 h1        1 MOL      0.080082
    166 H74         6.4440   -0.0670    4.3840 h1        1 MOL      0.080082
    167 H75         5.8410   -1.6610    3.8650 h1        1 MOL      0.080082
    168 H76         5.2180   -0.3160    1.6750 hn        1 MOL     -0.026145
    169 Ca1        -2.2010    0.0010   -0.2410 Ca        1 MOL      1.589726
    170 O24        -4.6160   -0.3100    0.8620 oh        1 MOL     -0.709905
    171 H77        -5.0400    0.5210    1.0630 ho        1 MOL      0.362449
    172 H78        -4.7190   -0.8310    1.6590 ho        1 MOL      0.362449
    173 O25        -2.1240   -0.2190    2.8730 oh        1 MOL     -0.709905
    174 H79        -1.1870   -0.0810    2.7360 ho        1 MOL      0.362449
    175 H80        -2.2780    0.0740    3.7800 ho        1 MOL      0.362449
@<TRIPOS>BOND
     1    1    2 1   
     2    1    4 1   
     3    1    5 1   
     4    1    6 1   
     5    2    3 2   
     6    2    7 1   
     7    7    8 1   
     8    7   15 1   
     9    8    9 1   
    10    8   11 1   
    11    8   16 1   
    12    9   10 2   
    13    9   19 1   
    14   11   12 1   
    15   11   17 1   
    16   11   18 1   
    17   12   13 1   
    18   12   14 1   
    19   19   20 1   
    20   19   24 1   
    21   20   21 1   
    22   20   23 1   
    23   20   25 1   
    24   21   22 2   
    25   21   29 1   
    26   23   26 1   
    27   23   27 1   
    28   23   28 1   
    29   29   30 1   
    30   29   37 1   
    31   30   31 1   
    32   30   33 1   
    33   30   38 1   
    34   31   32 2   
    35   31   41 1   
    36   33   34 1   
    37   33   39 1   
    38   33   40 1   
    39   34   35 1   
    40   34   36 1   
    41   41   42 1   
    42   41   45 1   
    43   42   43 1   
    44   42   46 1   
    45   42   47 1   
    46   43   44 2   
    47   43   48 1   
    48   48   49 1   
    49   48   56 1   
    50   49   50 1   
    51   49   52 1   
    52   49   57 1   
    53   50   51 2   
    54   50   62 1   
    55   52   53 1   
    56   52   58 1   
    57   52   59 1   
    58   53   54 1   
    59   53   55 2   
    60   54   60 1   
    61   54   61 1   
    62   62   63 1   
    63   62   66 1   
    64   63   64 1   
    65   63   67 1   
    66   63   68 1   
    67   64   65 2   
    68   64   69 1   
    69   69   70 1   
    70   69   76 1   
    71   70   71 1   
    72   70   73 1   
    73   70   77 1   
    74   71   72 2   
    75   71   83 1   
    76   73   74 1   
    77   73   75 1   
    78   73   78 1   
    79   74   80 1   
    80   74   81 1   
    81   74   82 1   
    82   75   79 1   
    83   83   84 1   
    84   83   91 1   
    85   84   85 1   
    86   84   87 1   
    87   84   92 1   
    88   85   86 2   
    89   85  102 1   
    90   87   88 1   
    91   87   89 1   
    92   87   93 1   
    93   88   90 1   
    94   88   94 1   
    95   88   95 1   
    96   89   96 1   
    97   89   97 1   
    98   89   98 1   
    99   90   99 1   
   100   90  100 1   
   101   90  101 1   
   102  102  103 1   
   103  102  110 1   
   104  103  104 1   
   105  103  106 1   
   106  103  111 1   
   107  104  105 2   
   108  104  114 1   
   109  106  107 1   
   110  106  112 1   
   111  106  113 1   
   112  107  108 1   
   113  107  109 1   
   114  114  115 1   
   115  114  125 1   
   116  115  116 1   
   117  115  118 1   
   118  115  126 1   
   119  116  117 2   
   120  116  134 1   
   121  118  119 1   
   122  118  127 1   
   123  118  128 1   
   124  119  120 ar  
   125  119  121 ar  
   126  120  122 ar  
   127  120  129 1   
   128  121  123 ar  
   129  121  130 1   
   130  122  124 ar  
   131  122  131 1   
   132  123  124 ar  
   133  123  132 1   
   134  124  133 1   
   135  134  135 1   
   136  134  140 1   
   137  135  136 1   
   138  135  138 1   
   139  135  141 1   
   140  136  137 2   
   141  136  148 1   
   142  138  139 1   
   143  138  142 1   
   144  138  143 1   
   145  139  140 1   
   146  139  144 1   
   147  139  145 1   
   148  140  146 1   
   149  140  147 1   
   150  148  149 1   
   151  148  157 1   
   152  149  150 1   
   153  149  152 1   
   154  149  158 1   
   155  150  151 2   
   156  150  163 1   
   157  152  153 1   
   158  152  159 1   
   159  152  160 1   
   160  153  154 1   
   161  153  161 1   
   162  153  162 1   
   163  154  155 1   
   164  154  156 1   
   165  163  164 1   
   166  163  168 1   
   167  164  165 1   
   168  164  166 1   
   169  164  167 1   
   170  170  171 1   
   171  170  172 1   
   172  173  174 1   
   173  173  175 1   
@<TRIPOS>SUBSTRUCTURE
     1 MOL         1 TEMP              0 ****  ****    0 ROOT
