@<TRIPOS>MOLECULE
MOL
  172   171     1     0     0
SMALL
resp


@<TRIPOS>ATOM
      1 C1          0.9560    4.5120    5.1490 c3        1 MOL     -0.387315
      2 C2          0.2460    4.3320    3.7850 c         1 MOL      0.610224
      3 O1          0.8670    4.4990    2.6880 o         1 MOL     -0.526233
      4 H1          0.3130    4.1370    5.9450 hc        1 MOL      0.102427
      5 H2          1.8940    3.9550    5.1480 hc        1 MOL      0.102427
      6 H3          1.1620    5.5690    5.3160 hc        1 MOL      0.102427
      7 N1         -1.0330    3.9230    3.7450 n         1 MOL     -0.492018
      8 C3         -1.7830    3.6150    2.5430 c3        1 MOL      0.070196
      9 C4         -1.7630    4.7720    1.4860 c         1 MOL      0.493636
     10 O2         -1.8820    5.9550    1.8010 o         1 MOL     -0.573720
     11 C5         -3.2200    3.2790    2.9610 c3        1 MOL     -0.188781
     12 C6         -4.1350    2.4710    1.9260 c         1 MOL      0.704411
     13 O3         -5.2870    2.1310    2.2640 o         1 MOL     -0.673983
     14 O4         -3.7010    2.0550    0.8300 o         1 MOL     -0.673983
     15 H4         -1.4680    3.7030    4.6240 hn        1 MOL      0.294745
     16 H5         -1.3670    2.7230    2.0730 h1        1 MOL      0.038939
     17 H6         -3.8090    4.1110    3.3660 hc        1 MOL      0.039070
     18 H7         -3.0910    2.6650    3.8510 hc        1 MOL      0.039070
     19 N2         -1.8250    4.3920    0.2440 n         1 MOL     -0.357383
     20 C7         -1.8610    5.2850   -0.9170 c3        1 MOL      0.291868
     21 C8         -2.8910    4.9290   -1.9880 c         1 MOL      0.388378
     22 O5         -2.9750    5.6210   -2.9880 o         1 MOL     -0.543623
     23 C9         -0.4410    5.2520   -1.4530 c3        1 MOL     -0.402136
     24 H8         -1.7990    3.3960    0.0580 hn        1 MOL      0.363272
     25 H9         -2.0670    6.2440   -0.4480 h1        1 MOL      0.013318
     26 H10         0.2320    5.3440   -0.6040 hc        1 MOL      0.102086
     27 H11        -0.3090    4.3220   -2.0130 hc        1 MOL      0.102086
     28 H12        -0.2260    6.1450   -2.0490 hc        1 MOL      0.102086
     29 N3         -3.7020    3.9000   -1.7340 n         1 MOL     -0.321940
     30 C10        -4.7310    3.5100   -2.7630 c3        1 MOL      0.111780
     31 C11        -5.9940    2.7290   -2.1250 c         1 MOL      0.282184
     32 O6         -6.9780    2.6220   -2.9020 o         1 MOL     -0.538119
     33 C12        -4.0930    2.4960   -3.7410 c3        1 MOL     -0.044358
     34 C13        -3.3820    1.3120   -3.1310 c         1 MOL      0.792793
     35 O7         -3.6450    0.8230   -1.9820 o         1 MOL     -0.721507
     36 O8         -2.4590    0.7690   -3.7110 o         1 MOL     -0.721507
     37 H13        -3.5880    3.3070   -0.9270 hn        1 MOL      0.071074
     38 H14        -5.0650    4.3790   -3.3330 h1        1 MOL      0.079726
     39 H15        -3.4820    3.1000   -4.4050 hc        1 MOL      0.004173
     40 H16        -4.9150    2.1110   -4.3470 hc        1 MOL      0.004173
     41 N4         -6.0910    2.2160   -0.8920 n         1 MOL     -0.025193
     42 C14        -7.2270    1.5730   -0.3700 c3        1 MOL     -0.354836
     43 C15        -7.3860    0.1200   -0.7560 c         1 MOL      0.569898
     44 O9         -8.4880   -0.3510   -0.6580 o         1 MOL     -0.605786
     45 H17        -5.3100    2.2130   -0.2600 hn        1 MOL      0.127319
     46 H18        -8.0950    2.1180   -0.7320 h1        1 MOL      0.152744
     47 H19        -7.2990    1.7000    0.7120 h1        1 MOL      0.152744
     48 N5         -6.3650   -0.5970   -1.3120 n         1 MOL     -0.125877
     49 C16        -6.5450   -1.9370   -1.8630 c3        1 MOL     -0.019695
     50 C17        -6.6780   -3.0980   -0.8980 c         1 MOL      0.459313
     51 O10        -6.8540   -4.2640   -1.3000 o         1 MOL     -0.519054
     52 C18        -5.4260   -2.1610   -2.8100 c3        1 MOL     -0.118419
     53 C19        -4.0340   -2.2570   -2.2500 c         1 MOL      0.712268
     54 N6         -2.9930   -2.4460   -3.0350 n         1 MOL     -0.670298
     55 O11        -3.7780   -2.0420   -1.0470 o         1 MOL     -0.689099
     56 H20        -5.4770   -0.1310   -1.4180 hn        1 MOL      0.049669
     57 H21        -7.4880   -1.9670   -2.4060 h1        1 MOL      0.093000
     58 H22        -5.3420   -1.3800   -3.5610 hc        1 MOL      0.037356
     59 H23        -5.6200   -3.1080   -3.3130 hc        1 MOL      0.037356
     60 H24        -3.1840   -2.4560   -4.0320 hn        1 MOL      0.343052
     61 H25        -2.0830   -2.2410   -2.6270 hn        1 MOL      0.343052
     62 N7         -6.6440   -2.7480    0.3840 n         1 MOL     -0.251298
     63 C20        -6.6330   -3.7500    1.5040 c3        1 MOL     -0.283300
     64 C21        -5.3010   -4.3700    1.9280 c         1 MOL      0.530199
     65 O12        -5.2770   -5.4520    2.5710 o         1 MOL     -0.549768
     66 H26        -6.3340   -1.8080    0.5920 hn        1 MOL      0.240351
     67 H27        -7.2520   -4.6010    1.2180 h1        1 MOL      0.135510
     68 H28        -6.9730   -3.2040    2.3750 h1        1 MOL      0.135510
     69 N8         -4.2540   -3.7170    1.3960 n         1 MOL     -0.137929
     70 C22        -2.9070   -4.3210    1.5880 c3        1 MOL     -0.402208
     71 C23        -1.8190   -3.2430    1.7460 c         1 MOL      0.614885
     72 O13        -1.9510   -2.2470    1.0710 o         1 MOL     -0.609572
     73 C24        -2.4050   -5.2700    0.4410 c3        1 MOL      0.807525
     74 C25        -3.0700   -6.6550    0.5540 c3        1 MOL     -0.557940
     75 O14        -2.6530   -4.5550   -0.7320 oh        1 MOL     -0.667575
     76 H29        -4.3930   -2.9980    0.7060 hn        1 MOL      0.145144
     77 H30        -2.8330   -4.8610    2.5320 h1        1 MOL      0.116414
     78 H31        -1.3360   -5.4540    0.5350 h1        1 MOL     -0.102325
     79 H32        -2.8650   -3.6800   -0.3950 ho        1 MOL      0.376369
     80 H33        -2.6870   -7.3590   -0.1760 hc        1 MOL      0.126752
     81 H34        -2.9510   -6.9860    1.5900 hc        1 MOL      0.126752
     82 H35        -4.1480   -6.5850    0.4240 hc        1 MOL      0.126752
     83 N9         -0.6510   -3.5020    2.4120 n         1 MOL     -0.503514
     84 C26         0.5250   -2.6730    2.0730 c3        1 MOL      0.060163
     85 C27         1.2650   -3.0750    0.7940 c         1 MOL      0.555972
     86 O15         1.5490   -4.2470    0.5210 o         1 MOL     -0.572012
     87 C28         1.4630   -2.6050    3.2680 c3        1 MOL     -0.012880
     88 C29         0.7960   -1.7400    4.4110 c3        1 MOL      0.325440
     89 C30         2.9290   -2.1570    2.9840 c3        1 MOL     -0.028678
     90 C31         1.3960   -2.2230    5.7030 c3        1 MOL     -0.227978
     91 H36        -0.5240   -4.4290    2.7870 hn        1 MOL      0.280726
     92 H37         0.1860   -1.6390    2.0240 h1        1 MOL      0.078431
     93 H38         1.5440   -3.6290    3.6510 hc        1 MOL      0.003613
     94 H39        -0.2770   -1.9370    4.3820 hc        1 MOL     -0.083416
     95 H40         0.9210   -0.6850    4.1970 hc        1 MOL     -0.083416
     96 H41         3.6450   -2.3490    3.7840 hc        1 MOL     -0.006290
     97 H42         3.3060   -2.7410    2.1340 hc        1 MOL     -0.006290
     98 H43         2.9920   -1.0970    2.7170 hc        1 MOL     -0.006290
     99 H44         0.8690   -1.5370    6.3720 hc        1 MOL      0.031717
    100 H45         1.1170   -3.2370    5.9910 hc        1 MOL      0.031717
    101 H46         2.4720   -2.0960    5.6650 hc        1 MOL      0.031717
    102 N10         1.5850   -2.0780   -0.0360 n         1 MOL     -0.298959
    103 C32         2.4440   -2.0780   -1.1700 c3        1 MOL      0.197689
    104 C33         3.9810   -1.6340   -0.8880 c         1 MOL      0.210969
    105 O16         4.2240   -1.0370    0.1700 o         1 MOL     -0.169817
    106 C34         1.7590   -1.0820   -2.1200 c3        1 MOL     -0.446324
    107 C35         0.3200   -1.4670   -2.5240 c         1 MOL      0.837228
    108 O17        -0.6650   -1.2530   -1.8210 o         1 MOL     -0.688389
    109 O18         0.2210   -2.1120   -3.6210 o         1 MOL     -0.688389
    110 H47         1.3310   -1.1650    0.3030 hn        1 MOL      0.086028
    111 H48         2.3520   -3.0560   -1.6430 h1        1 MOL      0.052297
    112 H49         2.3770   -1.0400   -3.0160 hc        1 MOL      0.113639
    113 H50         1.5620   -0.1560   -1.5860 hc        1 MOL      0.113639
    114 N11         4.9040   -1.8420   -1.8130 n         1 MOL     -0.450402
    115 C36         6.2680   -1.7000   -1.5080 c3        1 MOL      0.225762
    116 C37         6.6460   -0.2340   -1.1420 c         1 MOL      0.318038
    117 O19         7.4440   -0.0650   -0.2400 o         1 MOL     -0.429666
    118 C38         7.0970   -2.3680   -2.5630 c3        1 MOL     -0.111010
    119 C39         8.5570   -2.2280   -2.2130 ca        1 MOL      0.067006
    120 C40         9.0670   -2.9280   -1.0750 ca        1 MOL     -0.215583
    121 C41         9.3810   -1.3590   -2.8140 ca        1 MOL     -0.215583
    122 C42        10.3770   -2.6960   -0.6450 ca        1 MOL     -0.030718
    123 C43        10.7190   -1.1720   -2.4150 ca        1 MOL     -0.030718
    124 C44        11.2510   -1.8570   -1.3640 ca        1 MOL     -0.154147
    125 H51         4.6850   -2.3870   -2.6320 hn        1 MOL      0.297609
    126 H52         6.4270   -2.2750   -0.5980 h1        1 MOL      0.064803
    127 H53         6.9930   -1.9130   -3.5440 hc        1 MOL      0.054958
    128 H54         6.8410   -3.4260   -2.6900 hc        1 MOL      0.054958
    129 H55         8.4470   -3.6370   -0.5570 ha        1 MOL      0.125463
    130 H56         9.0290   -0.7750   -3.6510 ha        1 MOL      0.125463
    131 H57        10.6960   -3.4460    0.0690 ha        1 MOL      0.081554
    132 H58        11.4320   -0.5290   -2.9190 ha        1 MOL      0.081554
    133 H59        12.3140   -1.7590   -1.1950 ha        1 MOL      0.107742
    134 N12         6.1240    0.8480   -1.8020 n         1 MOL     -0.151858
    135 C45         6.3790    2.2670   -1.4970 c3        1 MOL      0.087129
    136 C46         5.9550    2.5080    0.0430 c         1 MOL      0.149880
    137 O20         6.6280    3.1580    0.8140 o         1 MOL     -0.453438
    138 C47         5.6090    3.1110   -2.5230 c3        1 MOL      0.118561
    139 C48         5.5840    2.2000   -3.7160 c3        1 MOL     -0.179871
    140 C49         5.4210    0.7870   -3.1640 c3        1 MOL      0.130836
    141 H60         7.4500    2.4470   -1.5870 h1        1 MOL      0.044557
    142 H61         4.6300    3.4330   -2.1810 hc        1 MOL     -0.006632
    143 H62         6.2530    3.9700   -2.7280 hc        1 MOL     -0.006632
    144 H63         4.7620    2.3300   -4.4170 hc        1 MOL      0.052679
    145 H64         6.5680    2.2480   -4.1650 hc        1 MOL      0.052679
    146 H65         4.4160    0.3940   -2.9820 h1        1 MOL     -0.009521
    147 H66         5.8590    0.0090   -3.7970 h1        1 MOL     -0.009521
    148 N13         4.7970    1.9690    0.3580 n         1 MOL      0.040862
    149 C50         4.1640    2.1440    1.6430 c3        1 MOL     -0.100066
    150 C51         4.9490    1.3700    2.6650 c         1 MOL      0.394284
    151 O21         5.1910    1.9360    3.7310 o         1 MOL     -0.543897
    152 C52         2.6880    1.6110    1.6670 c3        1 MOL     -0.115547
    153 C53         1.8180    2.1490    0.5170 c3        1 MOL     -0.046816
    154 C54         0.3920    1.6530    0.5240 c         1 MOL      0.791327
    155 O22         0.0900    0.6200    1.1730 o         1 MOL     -0.796394
    156 O23        -0.4510    2.0960   -0.2950 o         1 MOL     -0.796394
    157 H67         4.3060    1.4100   -0.3150 hn        1 MOL      0.134677
    158 H68         4.1720    3.2060    1.8760 h1        1 MOL      0.122849
    159 H69         2.2660    1.9220    2.6260 hc        1 MOL      0.072876
    160 H70         2.6870    0.5220    1.6170 hc        1 MOL      0.072876
    161 H71         2.2880    1.8180   -0.4140 hc        1 MOL      0.021952
    162 H72         1.7970    3.2400    0.5570 hc        1 MOL      0.021952
    163 N14         5.5370    0.1500    2.3770 n         1 MOL      0.010401
    164 C55         6.4350   -0.5640    3.2930 c3        1 MOL     -0.143984
    165 H73         7.4100   -0.6870    2.8220 h1        1 MOL      0.059231
    166 H74         6.5470    0.0090    4.2140 h1        1 MOL      0.059231
    167 H75         6.0160   -1.5430    3.5230 h1        1 MOL      0.059231
    168 H76         5.3240   -0.2920    1.4870 hn        1 MOL     -0.028260
    169 Ca1        -2.2020    0.0030   -0.0550 Ca        1 MOL      1.743080
    170 O24        -1.8830    0.2460    2.6810 oh        1 MOL     -0.766709
    171 H77        -1.0130    0.4760    2.3550 ho        1 MOL      0.374618
    172 H78        -1.8730    0.5100    3.5980 ho        1 MOL      0.374618
@<TRIPOS>BOND
     1    1    2 1   
     2    1    4 1   
     3    1    5 1   
     4    1    6 1   
     5    2    3 2   
     6    2    7 1   
     7    7    8 1   
     8    7   15 1   
     9    8    9 1   
    10    8   11 1   
    11    8   16 1   
    12    9   10 2   
    13    9   19 1   
    14   11   12 1   
    15   11   17 1   
    16   11   18 1   
    17   12   13 1   
    18   12   14 1   
    19   19   20 1   
    20   19   24 1   
    21   20   21 1   
    22   20   23 1   
    23   20   25 1   
    24   21   22 2   
    25   21   29 1   
    26   23   26 1   
    27   23   27 1   
    28   23   28 1   
    29   29   30 1   
    30   29   37 1   
    31   30   31 1   
    32   30   33 1   
    33   30   38 1   
    34   31   32 2   
    35   31   41 1   
    36   33   34 1   
    37   33   39 1   
    38   33   40 1   
    39   34   35 1   
    40   34   36 1   
    41   41   42 1   
    42   41   45 1   
    43   42   43 1   
    44   42   46 1   
    45   42   47 1   
    46   43   44 2   
    47   43   48 1   
    48   48   49 1   
    49   48   56 1   
    50   49   50 1   
    51   49   52 1   
    52   49   57 1   
    53   50   51 2   
    54   50   62 1   
    55   52   53 1   
    56   52   58 1   
    57   52   59 1   
    58   53   54 1   
    59   53   55 2   
    60   54   60 1   
    61   54   61 1   
    62   62   63 1   
    63   62   66 1   
    64   63   64 1   
    65   63   67 1   
    66   63   68 1   
    67   64   65 2   
    68   64   69 1   
    69   69   70 1   
    70   69   76 1   
    71   70   71 1   
    72   70   73 1   
    73   70   77 1   
    74   71   72 2   
    75   71   83 1   
    76   73   74 1   
    77   73   75 1   
    78   73   78 1   
    79   74   80 1   
    80   74   81 1   
    81   74   82 1   
    82   75   79 1   
    83   83   84 1   
    84   83   91 1   
    85   84   85 1   
    86   84   87 1   
    87   84   92 1   
    88   85   86 2   
    89   85  102 1   
    90   87   88 1   
    91   87   89 1   
    92   87   93 1   
    93   88   90 1   
    94   88   94 1   
    95   88   95 1   
    96   89   96 1   
    97   89   97 1   
    98   89   98 1   
    99   90   99 1   
   100   90  100 1   
   101   90  101 1   
   102  102  103 1   
   103  102  110 1   
   104  103  104 1   
   105  103  106 1   
   106  103  111 1   
   107  104  105 2   
   108  104  114 1   
   109  106  107 1   
   110  106  112 1   
   111  106  113 1   
   112  107  108 1   
   113  107  109 1   
   114  114  115 1   
   115  114  125 1   
   116  115  116 1   
   117  115  118 1   
   118  115  126 1   
   119  116  117 2   
   120  116  134 1   
   121  118  119 1   
   122  118  127 1   
   123  118  128 1   
   124  119  120 ar  
   125  119  121 ar  
   126  120  122 ar  
   127  120  129 1   
   128  121  123 ar  
   129  121  130 1   
   130  122  124 ar  
   131  122  131 1   
   132  123  124 ar  
   133  123  132 1   
   134  124  133 1   
   135  134  135 1   
   136  134  140 1   
   137  135  136 1   
   138  135  138 1   
   139  135  141 1   
   140  136  137 2   
   141  136  148 1   
   142  138  139 1   
   143  138  142 1   
   144  138  143 1   
   145  139  140 1   
   146  139  144 1   
   147  139  145 1   
   148  140  146 1   
   149  140  147 1   
   150  148  149 1   
   151  148  157 1   
   152  149  150 1   
   153  149  152 1   
   154  149  158 1   
   155  150  151 2   
   156  150  163 1   
   157  152  153 1   
   158  152  159 1   
   159  152  160 1   
   160  153  154 1   
   161  153  161 1   
   162  153  162 1   
   163  154  155 1   
   164  154  156 1   
   165  163  164 1   
   166  163  168 1   
   167  164  165 1   
   168  164  166 1   
   169  164  167 1   
   170  170  171 1   
   171  170  172 1   
@<TRIPOS>SUBSTRUCTURE
     1 MOL         1 TEMP              0 ****  ****    0 ROOT
