@<TRIPOS>MOLECULE
MOL
  172   171     1     0     0
SMALL
resp


@<TRIPOS>ATOM
      1 C1          0.1830    4.5840    5.2590 c3        1 MOL     -0.300278
      2 C2         -0.4530    4.4560    3.8800 c         1 MOL      0.719812
      3 O1          0.2230    4.7950    2.8790 o         1 MOL     -0.572577
      4 H1         -0.0230    5.5750    5.6630 hc        1 MOL      0.067662
      5 H2         -0.2330    3.8270    5.9240 hc        1 MOL      0.067662
      6 H3          1.2610    4.4430    5.1770 hc        1 MOL      0.067662
      7 N1         -1.7020    3.9690    3.7930 n         1 MOL     -0.634340
      8 C3         -2.3570    3.5810    2.5180 c3        1 MOL      0.351134
      9 C4         -2.7430    4.7220    1.6080 c         1 MOL      0.470129
     10 O2         -3.3460    5.6790    2.1250 o         1 MOL     -0.568421
     11 C5         -3.5300    2.6850    2.8830 c3        1 MOL     -0.331960
     12 C6         -4.3280    2.0850    1.6740 c         1 MOL      0.648884
     13 O3         -3.6750    1.7520    0.6580 o         1 MOL     -0.639706
     14 O4         -5.5910    2.0890    1.7160 o         1 MOL     -0.639706
     15 H4         -2.1670    3.8110    4.6750 hn        1 MOL      0.318522
     16 H5         -1.6960    3.0170    1.8710 h1        1 MOL     -0.055020
     17 H6         -4.1830    3.2240    3.5770 hc        1 MOL      0.053896
     18 H7         -3.1720    1.8220    3.4510 hc        1 MOL      0.053896
     19 N2         -2.5320    4.5380    0.2860 n         1 MOL     -0.398156
     20 C7         -3.0050    5.4990   -0.7340 c3        1 MOL      0.197454
     21 C8         -3.7940    4.9200   -1.9070 c         1 MOL      0.621554
     22 O5         -3.9610    5.5230   -2.9710 o         1 MOL     -0.594108
     23 C9         -1.9070    6.5170   -1.0230 c3        1 MOL     -0.296947
     24 H8         -1.9100    3.7750    0.0480 hn        1 MOL      0.345558
     25 H9         -3.8500    6.0480   -0.3230 h1        1 MOL      0.026835
     26 H10        -1.3950    6.8250   -0.1070 hc        1 MOL      0.070985
     27 H11        -1.1380    6.1480   -1.7040 hc        1 MOL      0.070985
     28 H12        -2.2650    7.3510   -1.6380 hc        1 MOL      0.070985
     29 N3         -4.3810    3.7120   -1.7510 n         1 MOL     -0.497725
     30 C10        -5.1740    3.0370   -2.7480 c3        1 MOL      0.107488
     31 C11        -6.4870    2.2920   -2.3130 c         1 MOL      0.382142
     32 O6         -7.4150    2.3060   -3.1360 o         1 MOL     -0.536290
     33 C12        -4.2460    2.0750   -3.4670 c3        1 MOL     -0.219832
     34 C13        -3.4310    1.0850   -2.6950 c         1 MOL      0.569340
     35 O7         -2.2010    1.2790   -2.6230 o         1 MOL     -0.622734
     36 O8         -4.0720    0.2440   -1.9540 o         1 MOL     -0.622734
     37 H13        -4.1460    3.2410   -0.8910 hn        1 MOL      0.240598
     38 H14        -5.5070    3.7540   -3.4880 h1        1 MOL      0.079500
     39 H15        -3.5960    2.7440   -4.0260 hc        1 MOL      0.062126
     40 H16        -4.8780    1.5300   -4.1730 hc        1 MOL      0.062126
     41 N4         -6.5480    1.6250   -1.1410 n         1 MOL     -0.229047
     42 C14        -7.6940    0.8060   -0.8900 c3        1 MOL     -0.115369
     43 C15        -7.5990   -0.6380   -1.3570 c         1 MOL      0.439716
     44 O9         -8.6410   -1.2560   -1.4940 o         1 MOL     -0.594371
     45 H17        -5.7300    1.5880   -0.5580 hn        1 MOL      0.233694
     46 H18        -8.6520    1.1350   -1.2990 h1        1 MOL      0.082839
     47 H19        -7.7300    0.8810    0.2020 h1        1 MOL      0.082839
     48 N5         -6.4210   -1.1860   -1.4820 n         1 MOL     -0.059883
     49 C16        -6.1920   -2.6100   -1.7620 c3        1 MOL     -0.087135
     50 C17        -5.9890   -3.5390   -0.5070 c         1 MOL      0.482254
     51 O10        -5.9370   -4.7610   -0.6140 o         1 MOL     -0.509568
     52 C18        -5.0580   -2.8070   -2.8580 c3        1 MOL     -0.032318
     53 C19        -3.6060   -2.5440   -2.4570 c         1 MOL      0.589545
     54 N6         -2.6880   -2.7740   -3.3170 n         1 MOL     -0.544248
     55 O11        -3.2920   -2.2090   -1.2830 o         1 MOL     -0.719402
     56 H20        -5.6010   -0.6530   -1.2180 hn        1 MOL      0.137501
     57 H21        -7.0870   -2.9710   -2.2730 h1        1 MOL      0.104850
     58 H22        -5.3360   -2.0540   -3.5880 hc        1 MOL      0.016592
     59 H23        -5.1290   -3.8090   -3.2890 hc        1 MOL      0.016592
     60 H24        -2.9300   -3.0540   -4.2600 hn        1 MOL      0.301722
     61 H25        -1.7190   -2.7050   -3.0450 hn        1 MOL      0.301722
     62 N7         -5.9000   -2.9270    0.6960 n         1 MOL     -0.401182
     63 C20        -5.8290   -3.7330    1.9390 c3        1 MOL     -0.235939
     64 C21        -4.4680   -4.4290    2.2600 c         1 MOL      0.524198
     65 O12        -4.4200   -5.2510    3.1500 o         1 MOL     -0.543137
     66 H26        -5.8490   -1.9160    0.7350 hn        1 MOL      0.315289
     67 H27        -6.6250   -4.4770    1.8860 h1        1 MOL      0.127243
     68 H28        -6.1490   -3.0310    2.7120 h1        1 MOL      0.127243
     69 N8         -3.4480   -4.0080    1.4490 n         1 MOL     -0.362557
     70 C22        -2.0940   -4.5450    1.5260 c3        1 MOL     -0.045152
     71 C23        -1.0640   -3.4260    1.4880 c         1 MOL      0.262195
     72 O13        -1.3190   -2.4200    0.8350 o         1 MOL     -0.321243
     73 C24        -1.6650   -5.4530    0.3410 c3        1 MOL      0.515661
     74 C25        -2.1980   -6.9120    0.4930 c3        1 MOL     -0.609086
     75 O14        -2.0430   -4.8970   -0.9590 oh        1 MOL     -0.593758
     76 H29        -3.6160   -3.2830    0.7720 hn        1 MOL      0.395849
     77 H30        -1.9220   -4.9780    2.5030 h1        1 MOL      0.078879
     78 H31        -0.5780   -5.5290    0.3300 h1        1 MOL     -0.028875
     79 H32        -1.9280   -3.9500   -0.9100 ho        1 MOL      0.322224
     80 H33        -3.2760   -6.8780    0.6540 hc        1 MOL      0.160216
     81 H34        -1.9910   -7.3910   -0.4670 hc        1 MOL      0.160216
     82 H35        -1.7090   -7.3310    1.3720 hc        1 MOL      0.160216
     83 N9          0.0960   -3.5580    2.2050 n         1 MOL     -0.367170
     84 C26         1.1180   -2.5060    2.1890 c3        1 MOL     -0.333818
     85 C27         1.9810   -2.8190    0.9230 c         1 MOL      0.584410
     86 O15         2.7150   -3.8150    0.8370 o         1 MOL     -0.599837
     87 C28         1.9750   -2.4470    3.5110 c3        1 MOL      0.516528
     88 C29         1.0510   -2.3830    4.7020 c3        1 MOL     -0.051779
     89 C30         2.8330   -1.1440    3.4560 c3        1 MOL     -0.463049
     90 C31         1.7900   -2.3140    6.1080 c3        1 MOL     -0.320039
     91 H36         0.2190   -4.3590    2.8000 hn        1 MOL      0.271881
     92 H37         0.5500   -1.5830    2.0460 h1        1 MOL      0.086640
     93 H38         2.6800   -3.2770    3.5230 hc        1 MOL     -0.092927
     94 H39         0.4990   -3.3140    4.8040 hc        1 MOL      0.032686
     95 H40         0.3900   -1.5270    4.6570 hc        1 MOL      0.032686
     96 H41         3.3450   -1.1400    2.5000 hc        1 MOL      0.090242
     97 H42         2.2120   -0.2710    3.6370 hc        1 MOL      0.090242
     98 H43         3.5940   -1.2580    4.2280 hc        1 MOL      0.090242
     99 H44         1.0770   -2.5230    6.8940 hc        1 MOL      0.076868
    100 H45         2.5790   -3.0750    6.1280 hc        1 MOL      0.076868
    101 H46         2.1580   -1.2930    6.2580 hc        1 MOL      0.076868
    102 N10         1.8020   -2.1590   -0.1710 n         1 MOL     -0.090206
    103 C32         2.7590   -2.0640   -1.2630 c3        1 MOL     -0.042797
    104 C33         4.1520   -1.5820   -0.8410 c         1 MOL      0.302900
    105 O16         4.2220   -0.9010    0.1790 o         1 MOL     -0.274587
    106 C34         2.0850   -1.2300   -2.3480 c3        1 MOL     -0.154118
    107 C35         0.5430   -1.4750   -2.5260 c         1 MOL      0.644424
    108 O17        -0.2620   -0.9520   -1.7040 o         1 MOL     -0.633565
    109 O18         0.1700   -2.0650   -3.5810 o         1 MOL     -0.633565
    110 H47         1.0420   -1.4880   -0.1820 hn        1 MOL      0.050278
    111 H48         2.8910   -3.0980   -1.5990 h1        1 MOL      0.052450
    112 H49         2.5080   -1.3730   -3.3400 hc        1 MOL      0.036934
    113 H50         2.2310   -0.1750   -2.0950 hc        1 MOL      0.036934
    114 N11         5.1610   -1.7950   -1.6340 n         1 MOL     -0.321247
    115 C36         6.5070   -1.3680   -1.2680 c3        1 MOL      0.052695
    116 C37         6.6910    0.1030   -0.9780 c         1 MOL      0.461655
    117 O19         7.3390    0.4450   -0.0060 o         1 MOL     -0.486165
    118 C38         7.4230   -1.8810   -2.4080 c3        1 MOL     -0.214409
    119 C39         8.8020   -1.5700   -2.2020 ca        1 MOL      0.185991
    120 C40         9.5240   -2.4030   -1.3190 ca        1 MOL     -0.243284
    121 C41         9.5700   -0.5870   -2.9670 ca        1 MOL     -0.243284
    122 C42        10.8980   -2.1420   -1.1070 ca        1 MOL     -0.053647
    123 C43        10.9260   -0.4140   -2.7680 ca        1 MOL     -0.053647
    124 C44        11.6420   -1.2220   -1.8310 ca        1 MOL     -0.138517
    125 H51         5.0600   -2.2410   -2.5300 hn        1 MOL      0.279501
    126 H52         6.8670   -2.0030   -0.4560 h1        1 MOL      0.102142
    127 H53         7.1110   -1.4110   -3.3420 hc        1 MOL      0.072007
    128 H54         7.1930   -2.9450   -2.5050 hc        1 MOL      0.072007
    129 H55         8.9860   -3.1100   -0.6970 ha        1 MOL      0.135306
    130 H56         8.9940   -0.0620   -3.7200 ha        1 MOL      0.135306
    131 H57        11.3870   -2.7980   -0.4060 ha        1 MOL      0.097552
    132 H58        11.4610    0.3930   -3.2450 ha        1 MOL      0.097552
    133 H59        12.7160   -1.2590   -1.8700 ha        1 MOL      0.103933
    134 N12         6.2140    1.1010   -1.7940 n         1 MOL     -0.121807
    135 C45         6.3990    2.5160   -1.4250 c3        1 MOL     -0.199806
    136 C46         5.6980    2.8310   -0.1030 c         1 MOL      0.490098
    137 O20         6.1260    3.7470    0.5930 o         1 MOL     -0.511455
    138 C47         5.8490    3.3440   -2.6020 c3        1 MOL     -0.051322
    139 C48         4.7220    2.4360   -3.0850 c3        1 MOL     -0.045099
    140 C49         5.2960    0.9780   -2.9220 c3        1 MOL     -0.040047
    141 H60         7.4660    2.6730   -1.3610 h1        1 MOL      0.107105
    142 H61         5.6220    4.3570   -2.2820 hc        1 MOL      0.059290
    143 H62         6.5120    3.4070   -3.4750 hc        1 MOL      0.059290
    144 H63         3.9710    2.6050   -2.3040 hc        1 MOL      0.029947
    145 H64         4.5430    2.6880   -4.1260 hc        1 MOL      0.029947
    146 H65         4.4870    0.2790   -2.7030 h1        1 MOL      0.034732
    147 H66         5.7820    0.6790   -3.8490 h1        1 MOL      0.034732
    148 N13         4.6530    2.0300    0.2370 n         1 MOL     -0.172314
    149 C50         3.9890    2.2190    1.5080 c3        1 MOL     -0.181581
    150 C51         4.8800    1.6550    2.5930 c         1 MOL      0.376844
    151 O21         5.0330    2.2750    3.6670 o         1 MOL     -0.546833
    152 C52         2.6170    1.5500    1.4510 c3        1 MOL      0.096666
    153 C53         1.7070    2.2800    0.4280 c3        1 MOL     -0.140413
    154 C54         0.2190    1.9000    0.4910 c         1 MOL      0.826437
    155 O22        -0.6460    2.3940   -0.2220 o         1 MOL     -0.812017
    156 O23        -0.1230    0.9340    1.2140 o         1 MOL     -0.812017
    157 H67         4.4650    1.1920   -0.2950 hn        1 MOL      0.320956
    158 H68         3.9150    3.2930    1.6880 h1        1 MOL      0.133226
    159 H69         2.1360    1.6500    2.4260 hc        1 MOL      0.062733
    160 H70         2.7250    0.5170    1.1110 hc        1 MOL      0.062733
    161 H71         2.1470    2.0110   -0.5300 hc        1 MOL      0.005859
    162 H72         1.7610    3.3480    0.6610 hc        1 MOL      0.005859
    163 N14         5.5250    0.4720    2.3770 n         1 MOL      0.078697
    164 C55         6.5810   -0.1360    3.2230 c3        1 MOL     -0.245273
    165 H73         6.6590    0.4170    4.1580 h1        1 MOL      0.080464
    166 H74         6.3250   -1.1740    3.4350 h1        1 MOL      0.080464
    167 H75         7.5360   -0.0970    2.6970 h1        1 MOL      0.080464
    168 H76         5.5050    0.1510    1.4250 hn        1 MOL     -0.043295
    169 Ca1        -2.0460    0.0440   -0.2420 Ca        1 MOL      1.681931
    170 O24        -3.8830   -1.0260    1.7870 oh        1 MOL     -0.867164
    171 H77        -4.6400   -1.0440    2.3760 ho        1 MOL      0.407239
    172 H78        -3.1380   -0.9440    2.3730 ho        1 MOL      0.407239
@<TRIPOS>BOND
     1    1    2 1   
     2    1    4 1   
     3    1    5 1   
     4    1    6 1   
     5    2    3 2   
     6    2    7 1   
     7    7    8 1   
     8    7   15 1   
     9    8    9 1   
    10    8   11 1   
    11    8   16 1   
    12    9   10 2   
    13    9   19 1   
    14   11   12 1   
    15   11   17 1   
    16   11   18 1   
    17   12   13 1   
    18   12   14 1   
    19   19   20 1   
    20   19   24 1   
    21   20   21 1   
    22   20   23 1   
    23   20   25 1   
    24   21   22 2   
    25   21   29 1   
    26   23   26 1   
    27   23   27 1   
    28   23   28 1   
    29   29   30 1   
    30   29   37 1   
    31   30   31 1   
    32   30   33 1   
    33   30   38 1   
    34   31   32 2   
    35   31   41 1   
    36   33   34 1   
    37   33   39 1   
    38   33   40 1   
    39   34   35 1   
    40   34   36 1   
    41   41   42 1   
    42   41   45 1   
    43   42   43 1   
    44   42   46 1   
    45   42   47 1   
    46   43   44 2   
    47   43   48 1   
    48   48   49 1   
    49   48   56 1   
    50   49   50 1   
    51   49   52 1   
    52   49   57 1   
    53   50   51 2   
    54   50   62 1   
    55   52   53 1   
    56   52   58 1   
    57   52   59 1   
    58   53   54 1   
    59   53   55 2   
    60   54   60 1   
    61   54   61 1   
    62   62   63 1   
    63   62   66 1   
    64   63   64 1   
    65   63   67 1   
    66   63   68 1   
    67   64   65 2   
    68   64   69 1   
    69   69   70 1   
    70   69   76 1   
    71   70   71 1   
    72   70   73 1   
    73   70   77 1   
    74   71   72 2   
    75   71   83 1   
    76   73   74 1   
    77   73   75 1   
    78   73   78 1   
    79   74   80 1   
    80   74   81 1   
    81   74   82 1   
    82   75   79 1   
    83   83   84 1   
    84   83   91 1   
    85   84   85 1   
    86   84   87 1   
    87   84   92 1   
    88   85   86 2   
    89   85  102 1   
    90   87   88 1   
    91   87   89 1   
    92   87   93 1   
    93   88   90 1   
    94   88   94 1   
    95   88   95 1   
    96   89   96 1   
    97   89   97 1   
    98   89   98 1   
    99   90   99 1   
   100   90  100 1   
   101   90  101 1   
   102  102  103 1   
   103  102  110 1   
   104  103  104 1   
   105  103  106 1   
   106  103  111 1   
   107  104  105 2   
   108  104  114 1   
   109  106  107 1   
   110  106  112 1   
   111  106  113 1   
   112  107  108 1   
   113  107  109 1   
   114  114  115 1   
   115  114  125 1   
   116  115  116 1   
   117  115  118 1   
   118  115  126 1   
   119  116  117 2   
   120  116  134 1   
   121  118  119 1   
   122  118  127 1   
   123  118  128 1   
   124  119  120 ar  
   125  119  121 ar  
   126  120  122 ar  
   127  120  129 1   
   128  121  123 ar  
   129  121  130 1   
   130  122  124 ar  
   131  122  131 1   
   132  123  124 ar  
   133  123  132 1   
   134  124  133 1   
   135  134  135 1   
   136  134  140 1   
   137  135  136 1   
   138  135  138 1   
   139  135  141 1   
   140  136  137 2   
   141  136  148 1   
   142  138  139 1   
   143  138  142 1   
   144  138  143 1   
   145  139  140 1   
   146  139  144 1   
   147  139  145 1   
   148  140  146 1   
   149  140  147 1   
   150  148  149 1   
   151  148  157 1   
   152  149  150 1   
   153  149  152 1   
   154  149  158 1   
   155  150  151 2   
   156  150  163 1   
   157  152  153 1   
   158  152  159 1   
   159  152  160 1   
   160  153  154 1   
   161  153  161 1   
   162  153  162 1   
   163  154  155 1   
   164  154  156 1   
   165  163  164 1   
   166  163  168 1   
   167  164  165 1   
   168  164  166 1   
   169  164  167 1   
   170  170  171 1   
   171  170  172 1   
@<TRIPOS>SUBSTRUCTURE
     1 MOL         1 TEMP              0 ****  ****    0 ROOT
