@<TRIPOS>MOLECULE
MOL
  186   183     1     0     0
SMALL
resp


@<TRIPOS>ATOM
      1 C1          1.1390   -1.7170    6.3500 c3        1 MOL     -0.277084
      2 C2          1.4930   -1.6810    4.8820 c         1 MOL      0.804571
      3 O1          0.5460   -1.9040    4.1200 o         1 MOL     -0.618896
      4 H1          0.0570   -1.7870    6.4610 hc        1 MOL      0.056847
      5 H2          1.6070   -2.5840    6.8170 hc        1 MOL      0.056847
      6 H3          1.4960   -0.8070    6.8330 hc        1 MOL      0.056847
      7 N1          2.6790   -1.3330    4.4520 n         1 MOL     -0.663987
      8 C3          3.1210   -1.5280    3.1280 c3        1 MOL      0.210689
      9 C4          3.1860   -3.0360    2.8480 c         1 MOL      0.356855
     10 O2          3.7990   -3.7770    3.6160 o         1 MOL     -0.566877
     11 C5          4.4370   -0.8490    2.9770 c3        1 MOL     -0.110587
     12 C6          4.8980   -0.7020    1.5220 c         1 MOL      0.757846
     13 O3          6.0610   -0.3620    1.3740 o         1 MOL     -0.686333
     14 O4          4.0300   -0.8280    0.6480 o         1 MOL     -0.686333
     15 H4          3.4370   -1.0750    5.0720 hn        1 MOL      0.322883
     16 H5          2.3330   -1.1680    2.4700 h1        1 MOL      0.054062
     17 H6          5.1690   -1.3270    3.6210 hc        1 MOL      0.007927
     18 H7          4.3860    0.1460    3.4220 hc        1 MOL      0.007927
     19 N2          2.6160   -3.5300    1.7350 n         1 MOL     -0.046080
     20 C7          2.5880   -4.9100    1.3530 c3        1 MOL      0.115399
     21 C8          3.4390   -5.2310    0.1490 c         1 MOL      0.287719
     22 O5          4.1650   -6.1870    0.1140 o         1 MOL     -0.543041
     23 C9          1.1070   -5.2920    1.0780 c3        1 MOL      0.186521
     24 C10         0.2440   -5.1580    2.3200 c3        1 MOL      0.100028
     25 C11         1.1350   -6.8000    0.6100 c3        1 MOL     -0.289611
     26 C12        -1.1950   -5.6180    2.0820 c3        1 MOL     -0.058990
     27 H8          2.2060   -2.8490    1.1060 hn        1 MOL      0.041841
     28 H9          2.8970   -5.4210    2.2540 h1        1 MOL      0.022228
     29 H10         0.7200   -4.7510    0.2170 hc        1 MOL     -0.012184
     30 H11         0.2330   -4.0960    2.5720 hc        1 MOL     -0.026784
     31 H12         0.7280   -5.6700    3.1530 hc        1 MOL     -0.026784
     32 H13         1.1790   -7.4170    1.5030 hc        1 MOL      0.053241
     33 H14         0.1480   -7.0650    0.2230 hc        1 MOL      0.053241
     34 H15         1.8600   -7.0670   -0.1540 hc        1 MOL      0.053241
     35 H16        -1.6810   -5.5830    3.0550 hc        1 MOL      0.002847
     36 H17        -1.6550   -5.0610    1.2550 hc        1 MOL      0.002847
     37 H18        -1.2320   -6.6630    1.7800 hc        1 MOL      0.002847
     38 N3          3.2900   -4.4290   -0.8860 n         1 MOL     -0.155699
     39 C13         4.0570   -4.6030   -2.1430 c3        1 MOL      0.120416
     40 C14         5.4580   -3.9940   -2.0810 c         1 MOL      0.378965
     41 O6          6.3050   -4.3490   -2.9340 o         1 MOL     -0.553936
     42 C15         3.2740   -4.1060   -3.3550 c3        1 MOL     -0.263010
     43 C16         2.9690   -2.6320   -3.3130 c         1 MOL      0.930358
     44 O7          2.3870   -2.1510   -4.2970 o         1 MOL     -0.753783
     45 O8          3.3000   -1.9160   -2.3720 o         1 MOL     -0.753783
     46 H19         2.9850   -3.4650   -0.8080 hn        1 MOL      0.134547
     47 H20         4.2040   -5.6790   -2.1960 h1        1 MOL      0.050172
     48 H21         2.3390   -4.6690   -3.2570 hc        1 MOL      0.047108
     49 H22         3.7850   -4.3510   -4.2850 hc        1 MOL      0.047108
     50 N4          5.7350   -3.0870   -1.1280 n         1 MOL      0.033477
     51 C17         7.0690   -2.5050   -0.9720 c3        1 MOL     -0.460623
     52 C18         7.2240   -1.3440   -1.8890 c         1 MOL      0.753822
     53 O9          7.7350   -1.4330   -3.0340 o         1 MOL     -0.585889
     54 H23         4.9650   -2.7650   -0.5700 hn        1 MOL      0.083164
     55 H24         7.8140   -3.2800   -1.1780 h1        1 MOL      0.148891
     56 H25         7.1550   -2.1460    0.0500 h1        1 MOL      0.148891
     57 N5          6.8630   -0.1300   -1.4250 n         1 MOL     -0.548337
     58 C19         7.1610    1.1760   -2.0930 c3        1 MOL      0.266398
     59 C20         7.5220    2.2560   -1.0050 c         1 MOL      0.341940
     60 O10         8.1970    3.2740   -1.1630 o         1 MOL     -0.548160
     61 C21         6.1200    1.5790   -3.0860 c3        1 MOL     -0.348559
     62 C22         4.6740    1.3810   -2.4980 c         1 MOL      0.808184
     63 O11         3.6830    1.2280   -3.2620 o         1 MOL     -0.735316
     64 O12         4.4730    1.4760   -1.2790 o         1 MOL     -0.735316
     65 H26         6.4360   -0.1390   -0.5070 hn        1 MOL      0.163099
     66 H27         8.0850    1.0850   -2.6690 h1        1 MOL      0.016094
     67 H28         6.1730    0.8430   -3.8860 hc        1 MOL      0.102611
     68 H29         6.2320    2.6070   -3.4300 hc        1 MOL      0.102611
     69 N6          6.9680    2.1190    0.2550 n         1 MOL     -0.133169
     70 C23         7.1220    3.1040    1.3340 c3        1 MOL     -0.071411
     71 C24         5.8750    3.9640    1.4410 c         1 MOL      0.681739
     72 O13         5.9570    4.9780    2.0830 o         1 MOL     -0.625752
     73 H30         6.3250    1.3440    0.3740 hn        1 MOL      0.206097
     74 H31         7.9450    3.7920    1.1600 h1        1 MOL      0.051671
     75 H32         7.3120    2.5410    2.2460 h1        1 MOL      0.051671
     76 N7          4.6980    3.5830    0.8490 n         1 MOL     -0.462535
     77 C25         3.4250    4.2600    0.9420 c3        1 MOL      0.038512
     78 C26         2.1570    3.3280    1.0050 c         1 MOL      0.618835
     79 O14         2.2850    2.1470    0.6210 o         1 MOL     -0.695561
     80 C27         3.2990    5.1460   -0.2810 c3        1 MOL     -0.022602
     81 C28         4.0020    6.4690   -0.0760 c3        1 MOL     -0.337737
     82 C29         3.9570    7.2700   -1.4070 c         1 MOL      0.726139
     83 N8          4.1960    8.5580   -1.2970 n         1 MOL     -0.826573
     84 O15         3.5710    6.7950   -2.4880 o         1 MOL     -0.567707
     85 H33         4.5910    2.8020    0.2330 hn        1 MOL      0.276608
     86 H34         3.3780    4.7740    1.8980 h1        1 MOL      0.033325
     87 H35         2.2260    5.2990   -0.4580 hc        1 MOL      0.046563
     88 H36         3.5850    4.6740   -1.2150 hc        1 MOL      0.046563
     89 H37         5.0570    6.2160    0.0760 hc        1 MOL      0.108226
     90 H38         3.5660    7.0680    0.7210 hc        1 MOL      0.108226
     91 H39         4.2620    8.9550   -0.3660 hn        1 MOL      0.356467
     92 H40         4.0220    9.1390   -2.1030 hn        1 MOL      0.356467
     93 N9          1.0480    3.8170    1.6030 n         1 MOL     -0.346658
     94 C30        -0.2270    3.0840    1.9380 c3        1 MOL     -0.030182
     95 C31        -1.3190    3.3780    0.9180 c         1 MOL      0.434271
     96 O16        -1.5770    4.5740    0.6890 o         1 MOL     -0.566940
     97 C32        -0.5600    3.2120    3.4700 c3        1 MOL      0.224916
     98 C33        -1.8910    2.5440    3.9530 c3        1 MOL     -0.316629
     99 C34         0.6090    2.8350    4.3600 c3        1 MOL     -0.316629
    100 H41         1.1180    4.8160    1.7530 hn        1 MOL      0.219222
    101 H42        -0.0270    2.0400    1.7400 h1        1 MOL      0.163991
    102 H43        -0.6990    4.2870    3.6310 hc        1 MOL     -0.010776
    103 H44        -2.7520    2.9330    3.4220 hc        1 MOL      0.073911
    104 H45        -1.9160    1.4470    3.9480 hc        1 MOL      0.073911
    105 H46        -2.0200    2.9500    4.9560 hc        1 MOL      0.073911
    106 H47         1.5230    3.3810    4.1330 hc        1 MOL      0.073911
    107 H48         0.4300    3.0360    5.4130 hc        1 MOL      0.073911
    108 H49         0.9080    1.8070    4.1420 hc        1 MOL      0.073911
    109 N10        -1.9310    2.4060    0.2110 n         1 MOL     -0.332941
    110 C35        -2.9510    2.6100   -0.7960 c3        1 MOL      0.246179
    111 C36        -4.3740    2.1690   -0.2500 c         1 MOL      0.557675
    112 O17        -4.4290    1.5050    0.7570 o         1 MOL     -0.530871
    113 C37        -2.3960    2.0120   -2.1290 c3        1 MOL     -0.412500
    114 C38        -2.9680    0.6090   -2.3380 c         1 MOL      0.498830
    115 N11        -2.1060   -0.3840   -2.2280 n         1 MOL     -0.615973
    116 O18        -4.0920    0.3180   -2.7300 o         1 MOL     -0.524309
    117 H50        -1.4740    1.5060    0.2520 hn        1 MOL      0.307467
    118 H51        -3.0060    3.6810   -0.9540 h1        1 MOL     -0.011660
    119 H52        -1.3060    2.0200   -2.1020 hc        1 MOL      0.158886
    120 H53        -2.6930    2.5610   -3.0160 hc        1 MOL      0.158886
    121 H54        -1.1650   -0.1360   -1.9520 hn        1 MOL      0.352695
    122 H55        -2.3420   -1.2530   -2.6810 hn        1 MOL      0.352695
    123 N12        -5.4560    2.3890   -1.0150 n         1 MOL     -0.638900
    124 C39        -6.7810    2.1360   -0.4700 c3        1 MOL      0.287905
    125 C40        -6.9180    0.6590   -0.1310 c         1 MOL      0.599091
    126 O19        -7.5040    0.3380    0.9160 o         1 MOL     -0.557264
    127 C41        -7.8190    2.5050   -1.5240 c3        1 MOL     -0.230885
    128 C42        -9.2430    2.2610   -1.2450 ca        1 MOL      0.196051
    129 C43        -9.7860    2.9060   -0.0630 ca        1 MOL     -0.341902
    130 C44       -10.0860    1.4360   -2.0480 ca        1 MOL     -0.341902
    131 C45       -11.0950    2.6240    0.4010 ca        1 MOL     -0.085624
    132 C46       -11.4400    1.2010   -1.6420 ca        1 MOL     -0.085624
    133 C47       -11.9210    1.8340   -0.4310 ca        1 MOL      0.158084
    134 O20       -13.1680    1.5180   -0.0240 oh        1 MOL     -0.472840
    135 H56        -5.3770    2.9730   -1.8440 hn        1 MOL      0.292365
    136 H57        -6.8640    2.7040    0.4510 h1        1 MOL      0.021351
    137 H58        -7.5240    1.9660   -2.4170 hc        1 MOL      0.073177
    138 H59        -7.6530    3.5460   -1.7780 hc        1 MOL      0.073177
    139 H60        -9.1540    3.5690    0.5000 ha        1 MOL      0.178272
    140 H61        -9.6960    0.9380   -2.9130 ha        1 MOL      0.178272
    141 H62       -11.5080    2.9930    1.3270 ha        1 MOL      0.118874
    142 H63       -12.0650    0.5760   -2.2630 ha        1 MOL      0.118874
    143 H64       -13.5570    0.8820   -0.6340 ho        1 MOL      0.358689
    144 N13        -6.3400   -0.3200   -0.8630 n         1 MOL     -0.355413
    145 C48        -6.3230   -1.7460   -0.5260 c3        1 MOL     -0.032788
    146 C49        -5.5000   -2.2260    0.6620 c         1 MOL      0.296275
    147 O21        -5.8880   -3.0710    1.4520 o         1 MOL     -0.499380
    148 C50        -6.0550   -2.5270   -1.8430 c3        1 MOL      0.007551
    149 C51        -7.1770   -2.5220   -2.9130 c3        1 MOL     -0.141858
    150 C52        -6.6920   -3.4420   -4.0080 c         1 MOL      0.590121
    151 O22        -5.7470   -3.1290   -4.8030 o         1 MOL     -0.704368
    152 O23        -7.2300   -4.5870   -3.9860 o         1 MOL     -0.704368
    153 H65        -5.7040   -0.0220   -1.5830 hn        1 MOL      0.238295
    154 H66        -7.3410   -1.9880   -0.2190 h1        1 MOL      0.097336
    155 H67        -5.9540   -3.5920   -1.6160 hc        1 MOL      0.046587
    156 H68        -5.1700   -2.0690   -2.2750 hc        1 MOL      0.046587
    157 H69        -7.3920   -1.4800   -3.1510 hc        1 MOL      0.001768
    158 H70        -8.0720   -2.9110   -2.4440 hc        1 MOL      0.001768
    159 N14        -4.3280   -1.6490    0.8230 n         1 MOL     -0.136503
    160 C53        -3.4460   -1.8860    1.9380 c3        1 MOL     -0.187435
    161 C54        -4.1000   -1.2100    3.2000 c         1 MOL      0.491809
    162 O24        -3.7760   -1.6170    4.2820 o         1 MOL     -0.549573
    163 C55        -2.0590   -1.3100    1.6450 c3        1 MOL      0.178943
    164 C56        -1.2600   -2.0870    0.6320 c3        1 MOL      0.003843
    165 C57        -0.1070   -1.1640    0.1300 c         1 MOL      0.817575
    166 O25         0.9370   -1.8140   -0.1160 o         1 MOL     -0.841395
    167 O26        -0.1440    0.0600   -0.0410 o         1 MOL     -0.841395
    168 H71        -4.0690   -1.0550    0.0400 hn        1 MOL      0.207080
    169 H72        -3.4040   -2.9500    2.1590 h1        1 MOL      0.130651
    170 H73        -1.4780   -1.3340    2.5680 hc        1 MOL     -0.015525
    171 H74        -2.0450   -0.2560    1.3660 hc        1 MOL     -0.015525
    172 H75        -1.8850   -2.2160   -0.2590 hc        1 MOL     -0.032915
    173 H76        -0.9850   -3.0520    1.0350 hc        1 MOL     -0.032915
    174 N15        -5.0670   -0.2240    3.0020 n         1 MOL     -0.051532
    175 C58        -5.7530    0.4400    4.1180 c3        1 MOL     -0.294195
    176 H77        -6.6460   -0.1250    4.3820 h1        1 MOL      0.100007
    177 H78        -5.0860    0.4870    4.9790 h1        1 MOL      0.100007
    178 H79        -6.0380    1.4500    3.8220 h1        1 MOL      0.100007
    179 H80        -5.2240   -0.0780    2.0090 hn        1 MOL      0.083881
    180 Ca1         2.3290    0.1740   -1.0870 Ca        1 MOL      1.833289
    181 O27         0.6490   -0.3040   -3.0360 oh        1 MOL     -0.859626
    182 H81         1.1250   -0.9340   -3.5780 ho        1 MOL      0.394842
    183 H82        -0.1160   -0.0670   -3.5630 ho        1 MOL      0.394842
    184 O28         1.6690    2.6250   -2.4170 oh        1 MOL     -0.859626
    185 H83         2.5780    2.5650   -2.7180 ho        1 MOL      0.394842
    186 H84         1.3110    3.3740   -2.9020 ho        1 MOL      0.394842
@<TRIPOS>BOND
     1    1    2 1   
     2    1    4 1   
     3    1    5 1   
     4    1    6 1   
     5    2    3 2   
     6    2    7 1   
     7    7    8 1   
     8    7   15 1   
     9    8    9 1   
    10    8   11 1   
    11    8   16 1   
    12    9   10 2   
    13    9   19 1   
    14   11   12 1   
    15   11   17 1   
    16   11   18 1   
    17   12   13 1   
    18   12   14 1   
    19   19   20 1   
    20   19   27 1   
    21   20   21 1   
    22   20   23 1   
    23   20   28 1   
    24   21   22 2   
    25   21   38 1   
    26   23   24 1   
    27   23   25 1   
    28   23   29 1   
    29   24   26 1   
    30   24   30 1   
    31   24   31 1   
    32   25   32 1   
    33   25   33 1   
    34   25   34 1   
    35   26   35 1   
    36   26   36 1   
    37   26   37 1   
    38   38   39 1   
    39   38   46 1   
    40   39   40 1   
    41   39   42 1   
    42   39   47 1   
    43   40   41 2   
    44   40   50 1   
    45   42   43 1   
    46   42   48 1   
    47   42   49 1   
    48   43   44 1   
    49   43   45 1   
    50   50   51 1   
    51   50   54 1   
    52   51   52 1   
    53   51   55 1   
    54   51   56 1   
    55   52   53 2   
    56   52   57 1   
    57   57   58 1   
    58   57   65 1   
    59   58   59 1   
    60   58   61 1   
    61   58   66 1   
    62   59   60 2   
    63   59   69 1   
    64   61   62 1   
    65   61   67 1   
    66   61   68 1   
    67   62   63 1   
    68   62   64 1   
    69   69   70 1   
    70   69   73 1   
    71   70   71 1   
    72   70   74 1   
    73   70   75 1   
    74   71   72 2   
    75   71   76 1   
    76   76   77 1   
    77   76   85 1   
    78   77   78 1   
    79   77   80 1   
    80   77   86 1   
    81   78   79 2   
    82   78   93 1   
    83   80   81 1   
    84   80   87 1   
    85   80   88 1   
    86   81   82 1   
    87   81   89 1   
    88   81   90 1   
    89   82   83 1   
    90   82   84 2   
    91   83   91 1   
    92   83   92 1   
    93   93   94 1   
    94   93  100 1   
    95   94   95 1   
    96   94   97 1   
    97   94  101 1   
    98   95   96 2   
    99   95  109 1   
   100   97   98 1   
   101   97   99 1   
   102   97  102 1   
   103   98  103 1   
   104   98  104 1   
   105   98  105 1   
   106   99  106 1   
   107   99  107 1   
   108   99  108 1   
   109  109  110 1   
   110  109  117 1   
   111  110  111 1   
   112  110  113 1   
   113  110  118 1   
   114  111  112 2   
   115  111  123 1   
   116  113  114 1   
   117  113  119 1   
   118  113  120 1   
   119  114  115 1   
   120  114  116 2   
   121  115  121 1   
   122  115  122 1   
   123  123  124 1   
   124  123  135 1   
   125  124  125 1   
   126  124  127 1   
   127  124  136 1   
   128  125  126 2   
   129  125  144 1   
   130  127  128 1   
   131  127  137 1   
   132  127  138 1   
   133  128  129 ar  
   134  128  130 ar  
   135  129  131 ar  
   136  129  139 1   
   137  130  132 ar  
   138  130  140 1   
   139  131  133 ar  
   140  131  141 1   
   141  132  133 ar  
   142  132  142 1   
   143  133  134 1   
   144  134  143 1   
   145  144  145 1   
   146  144  153 1   
   147  145  146 1   
   148  145  148 1   
   149  145  154 1   
   150  146  147 2   
   151  146  159 1   
   152  148  149 1   
   153  148  155 1   
   154  148  156 1   
   155  149  150 1   
   156  149  157 1   
   157  149  158 1   
   158  150  151 1   
   159  150  152 1   
   160  159  160 1   
   161  159  168 1   
   162  160  161 1   
   163  160  163 1   
   164  160  169 1   
   165  161  162 2   
   166  161  174 1   
   167  163  164 1   
   168  163  170 1   
   169  163  171 1   
   170  164  165 1   
   171  164  172 1   
   172  164  173 1   
   173  165  166 1   
   174  165  167 1   
   175  174  175 1   
   176  174  179 1   
   177  175  176 1   
   178  175  177 1   
   179  175  178 1   
   180  181  182 1   
   181  181  183 1   
   182  184  185 1   
   183  184  186 1   
@<TRIPOS>SUBSTRUCTURE
     1 MOL         1 TEMP              0 ****  ****    0 ROOT
