@<TRIPOS>MOLECULE
MOL
  189   185     1     0     0
SMALL
resp


@<TRIPOS>ATOM
      1 C1         -0.2680    3.7740   -4.7700 c3        1 MOL     -0.366455
      2 C2          0.3170    3.3190   -3.4550 c         1 MOL      0.800547
      3 O1         -0.2340    3.5700   -2.4260 o         1 MOL     -0.628396
      4 H1          0.4450    4.4230   -5.2790 hc        1 MOL      0.095638
      5 H2         -0.4790    2.9070   -5.3940 hc        1 MOL      0.095638
      6 H3         -1.1910    4.3240   -4.5860 hc        1 MOL      0.095638
      7 N1          1.5500    2.6940   -3.3360 n         1 MOL     -0.761263
      8 C3          2.0690    2.0700   -2.0440 c3        1 MOL      0.437461
      9 C4          2.5920    3.1860   -1.0910 c         1 MOL      0.263949
     10 O2          3.7900    3.5600   -1.1030 o         1 MOL     -0.446535
     11 C5          3.1320    1.0850   -2.4140 c3        1 MOL     -0.344521
     12 C6          3.8770    0.5240   -1.2310 c         1 MOL      0.673341
     13 O3          3.3260    0.6730   -0.0910 o         1 MOL     -0.577915
     14 O4          4.9060   -0.1380   -1.4750 o         1 MOL     -0.577915
     15 H4          2.1440    2.5490   -4.1350 hn        1 MOL      0.351074
     16 H5          1.2990    1.5140   -1.5090 h1        1 MOL     -0.060810
     17 H6          3.8130    1.6500   -3.0610 hc        1 MOL      0.069284
     18 H7          2.7540    0.2840   -3.0480 hc        1 MOL      0.069284
     19 N2          1.6010    3.8060   -0.4100 n         1 MOL     -0.151953
     20 C7          1.8600    4.9820    0.3950 c3        1 MOL     -0.152934
     21 C8          2.8320    4.7350    1.5920 c         1 MOL      0.360638
     22 O5          3.5750    5.6490    2.0280 o         1 MOL     -0.529155
     23 C9          0.4630    5.4620    0.8940 c3        1 MOL     -0.047582
     24 C10        -0.6060    5.7480   -0.1150 c3        1 MOL      0.029337
     25 C11        -0.2620    6.6920   -1.2650 c3        1 MOL     -0.098764
     26 C12        -1.4980    7.1290   -2.0680 c3        1 MOL      0.220249
     27 N3         -1.1890    8.2050   -3.0550 n4        1 MOL     -0.437312
     28 H8          0.6510    3.4680   -0.4660 hn        1 MOL      0.411170
     29 H9          2.3460    5.7420   -0.2130 h1        1 MOL      0.096970
     30 H10         0.5740    6.2710    1.6110 hc        1 MOL      0.045704
     31 H11         0.0300    4.6720    1.5100 hc        1 MOL      0.045704
     32 H12        -1.3630    6.2860    0.4510 hc        1 MOL      0.018223
     33 H13        -0.8450    4.7690   -0.5120 hc        1 MOL      0.018223
     34 H14         0.3880    6.2250   -2.0080 hc        1 MOL      0.022671
     35 H15         0.2620    7.5290   -0.8050 hc        1 MOL      0.022671
     36 H16        -2.2200    7.5660   -1.3780 hx        1 MOL      0.038580
     37 H17        -2.0500    6.2870   -2.4880 hx        1 MOL      0.038580
     38 H18        -0.9090    7.7840   -3.9370 hn        1 MOL      0.337282
     39 H19        -2.0040    8.7830   -3.1660 hn        1 MOL      0.337282
     40 H20        -0.4130    8.7270   -2.6870 hn        1 MOL      0.337282
     41 N4          2.8700    3.5040    2.1420 n         1 MOL     -0.049740
     42 C13         3.7720    3.2010    3.2740 c3        1 MOL      0.022791
     43 C14         5.2090    2.6700    2.9910 c         1 MOL      0.327839
     44 O6          6.1450    2.8040    3.8350 o         1 MOL     -0.524590
     45 C15         3.0090    2.5650    4.4380 c3        1 MOL     -0.199364
     46 C16         2.5750    1.1600    4.0530 c         1 MOL      0.868246
     47 O7          1.5190    0.7410    4.5900 o         1 MOL     -0.749798
     48 O8          3.1840    0.5330    3.1530 o         1 MOL     -0.749798
     49 H21         2.1390    2.8900    1.8220 hn        1 MOL      0.107467
     50 H22         4.0030    4.1870    3.6930 h1        1 MOL      0.079500
     51 H23         2.1670    3.2340    4.6030 hc        1 MOL      0.043306
     52 H24         3.5540    2.4660    5.3750 hc        1 MOL      0.043306
     53 N5          5.3980    2.2060    1.7880 n         1 MOL      0.185725
     54 C17         6.6530    1.9920    1.0560 c3        1 MOL     -0.288440
     55 C18         7.3560    0.6420    1.4930 c         1 MOL      0.531919
     56 O9          8.5410    0.6780    1.8820 o         1 MOL     -0.537053
     57 H25         4.5230    2.0470    1.2970 hn        1 MOL     -0.098604
     58 H26         7.3670    2.7560    1.3860 h1        1 MOL      0.116753
     59 H27         6.4550    1.9550   -0.0160 h1        1 MOL      0.116753
     60 N6          6.5340   -0.4260    1.5470 n         1 MOL     -0.175727
     61 C19         6.8410   -1.8450    1.7330 c3        1 MOL     -0.143765
     62 C20         6.9130   -2.6970    0.4480 c         1 MOL      0.467953
     63 O10         7.2830   -3.8700    0.5210 o         1 MOL     -0.545316
     64 C21         5.9420   -2.4530    2.8200 c3        1 MOL     -0.080155
     65 C22         4.4530   -2.3650    2.3940 c         1 MOL      0.704707
     66 O11         3.5500   -2.6540    3.2350 o         1 MOL     -0.731556
     67 O12         4.1480   -2.0380    1.2280 o         1 MOL     -0.731556
     68 H28         5.5990   -0.2830    1.1780 hn        1 MOL      0.070413
     69 H29         7.8510   -1.7690    2.1170 h1        1 MOL      0.119256
     70 H30         6.1410   -2.0090    3.7900 hc        1 MOL      0.063523
     71 H31         6.1340   -3.4960    3.0790 hc        1 MOL      0.063523
     72 N7          6.7430   -2.1640   -0.7630 n         1 MOL     -0.220572
     73 C23         6.8190   -2.8060   -2.0360 c3        1 MOL     -0.238113
     74 C24         5.5080   -3.6340   -2.4010 c         1 MOL      0.628386
     75 O13         5.5630   -4.3730   -3.3720 o         1 MOL     -0.591493
     76 H32         6.3130   -1.2490   -0.7500 hn        1 MOL      0.189904
     77 H33         7.7430   -3.3590   -2.2330 h1        1 MOL      0.127018
     78 H34         6.7120   -2.0360   -2.8020 h1        1 MOL      0.127018
     79 N8          4.4010   -3.4700   -1.6580 n         1 MOL     -0.513001
     80 C25         3.0880   -4.1510   -1.8180 c3        1 MOL     -0.013175
     81 C26         1.9520   -3.0880   -1.8460 c         1 MOL      0.880682
     82 O14         1.9880   -2.1270   -1.1110 o         1 MOL     -0.739234
     83 C27         2.9610   -5.2260   -0.7460 c3        1 MOL      0.427940
     84 C28         1.7860   -6.1190   -0.9580 c3        1 MOL     -0.277723
     85 O15         4.0330   -6.1270   -1.0470 oh        1 MOL     -0.639494
     86 H35         4.4430   -2.7290   -0.9750 hn        1 MOL      0.306580
     87 H36         3.0500   -4.5640   -2.8250 h1        1 MOL      0.044151
     88 H37         2.9350   -4.8980    0.2940 h1        1 MOL      0.024742
     89 H38         4.6750   -5.6360   -1.5670 ho        1 MOL      0.393077
     90 H39         0.9060   -5.5230   -0.7070 hc        1 MOL      0.057628
     91 H40         1.7530   -6.4290   -2.0040 hc        1 MOL      0.057628
     92 H41         1.7760   -6.9650   -0.2740 hc        1 MOL      0.057628
     93 N9          0.9290   -3.2910   -2.6260 n         1 MOL     -0.718792
     94 C29        -0.2630   -2.3430   -2.7080 c3        1 MOL     -0.120410
     95 C30        -1.4600   -3.0950   -2.1530 c         1 MOL      0.541601
     96 O16        -1.9300   -4.1530   -2.6260 o         1 MOL     -0.567303
     97 C31        -0.4800   -1.9350   -4.1820 c3        1 MOL      0.294121
     98 C32         0.7790   -1.1420   -4.6290 c3        1 MOL      0.045348
     99 C33        -1.7690   -1.1400   -4.2680 c3        1 MOL     -0.484934
    100 C34         0.8650   -0.8280   -6.1350 c3        1 MOL     -0.307417
    101 H42         1.0090   -4.0450   -3.2880 hn        1 MOL      0.336133
    102 H43        -0.0150   -1.4320   -2.1520 h1        1 MOL      0.177511
    103 H44        -0.5360   -2.8130   -4.8310 hc        1 MOL     -0.003313
    104 H45         1.6770   -1.6010   -4.2330 hc        1 MOL      0.028942
    105 H46         0.7030   -0.1880   -4.0930 hc        1 MOL      0.028942
    106 H47        -1.7410   -0.2640   -3.6190 hc        1 MOL      0.094916
    107 H48        -1.9130   -0.7780   -5.2850 hc        1 MOL      0.094916
    108 H49        -2.5790   -1.7830   -3.9320 hc        1 MOL      0.094916
    109 H50        -0.0010   -0.2360   -6.4270 hc        1 MOL      0.076332
    110 H51         1.7560   -0.2450   -6.3680 hc        1 MOL      0.076332
    111 H52         0.7970   -1.7330   -6.7400 hc        1 MOL      0.076332
    112 N10        -2.1430   -2.4600   -1.2110 n         1 MOL     -0.201363
    113 C35        -3.3930   -2.9630   -0.5600 c3        1 MOL      0.026922
    114 C36        -4.7200   -2.2660   -1.0240 c         1 MOL      0.458122
    115 O17        -4.7210   -1.1780   -1.5780 o         1 MOL     -0.433653
    116 C37        -3.3640   -2.7860    0.9770 c3        1 MOL      0.221318
    117 C38        -2.0680   -3.1190    1.5970 c3        1 MOL     -0.416621
    118 O18        -3.7310   -1.5380    1.5600 oh        1 MOL     -0.557351
    119 H53        -1.6870   -1.6170   -0.8680 hn        1 MOL      0.334710
    120 H54        -3.5730   -3.9990   -0.8330 h1        1 MOL      0.043477
    121 H55        -4.0210   -3.5490    1.3940 h1        1 MOL     -0.017687
    122 H56        -3.5900   -1.6500    2.5010 ho        1 MOL      0.404380
    123 H57        -1.4020   -2.2690    1.4360 hc        1 MOL      0.101087
    124 H58        -2.1130   -3.2770    2.6750 hc        1 MOL      0.101087
    125 H59        -1.5860   -3.9600    1.1000 hc        1 MOL      0.101087
    126 N11        -5.8320   -2.7960   -0.5660 n         1 MOL     -0.349962
    127 C39        -7.2070   -2.1880   -0.8190 c3        1 MOL     -0.187390
    128 C40        -7.2230   -0.7770   -0.2260 c         1 MOL      0.311866
    129 O19        -7.8710    0.1220   -0.8080 o         1 MOL     -0.475811
    130 C41        -8.3920   -3.0250   -0.1670 c3        1 MOL      0.384530
    131 C42        -8.6420   -4.3820   -0.8420 c3        1 MOL     -0.579285
    132 O20        -8.2450   -3.3140    1.1490 oh        1 MOL     -0.605702
    133 H60        -5.7430   -3.6040    0.0350 hn        1 MOL      0.285590
    134 H61        -7.3560   -2.1530   -1.8930 h1        1 MOL      0.179695
    135 H62        -9.2860   -2.4180   -0.3290 h1        1 MOL      0.028695
    136 H63        -9.0240   -2.9990    1.6220 ho        1 MOL      0.393973
    137 H64        -7.7230   -4.9440   -0.7220 hc        1 MOL      0.166637
    138 H65        -9.4980   -4.7540   -0.2720 hc        1 MOL      0.166637
    139 H66        -8.8950   -4.2520   -1.8980 hc        1 MOL      0.166637
    140 N12        -6.5240   -0.5450    0.9470 n         1 MOL     -0.196436
    141 C43        -6.5690    0.7530    1.5280 c3        1 MOL     -0.127403
    142 C44        -5.6350    1.8050    0.8270 c         1 MOL      0.350774
    143 O21        -5.9070    3.0060    0.9300 o         1 MOL     -0.518689
    144 C45        -6.2040    0.6210    3.0000 c3        1 MOL      0.028847
    145 C46        -7.3680    0.0610    3.8010 c3        1 MOL      0.290492
    146 C47        -6.7870   -0.0110    5.2160 c3        1 MOL     -0.170328
    147 C48        -7.7690   -0.8160    6.0850 c3        1 MOL     -0.042472
    148 N13        -7.5800   -2.2770    6.1370 n4        1 MOL     -0.304889
    149 H67        -5.9860   -1.2950    1.3470 hn        1 MOL      0.196811
    150 H68        -7.5380    1.2680    1.5360 h1        1 MOL      0.131152
    151 H69        -5.9070    1.5860    3.4200 hc        1 MOL     -0.025184
    152 H70        -5.3740   -0.0740    3.0500 hc        1 MOL     -0.025184
    153 H71        -7.6500   -0.9320    3.4500 hc        1 MOL     -0.070044
    154 H72        -8.2210    0.7320    3.6720 hc        1 MOL     -0.070044
    155 H73        -6.7280    0.9950    5.6110 hc        1 MOL      0.094315
    156 H74        -5.8560   -0.5700    5.2260 hc        1 MOL      0.094315
    157 H75        -8.7570   -0.5260    5.7530 hx        1 MOL      0.103727
    158 H76        -7.5900   -0.5330    7.1210 hx        1 MOL      0.103727
    159 H77        -6.6290   -2.5250    6.3720 hn        1 MOL      0.287915
    160 H78        -8.2410   -2.5350    6.8630 hn        1 MOL      0.287915
    161 H79        -7.8600   -2.7320    5.2760 hn        1 MOL      0.287915
    162 N14        -4.7380    1.3400   -0.0600 n         1 MOL      0.143356
    163 C49        -3.9460    2.1240   -0.9070 c3        1 MOL     -0.126071
    164 C50        -4.6050    2.4850   -2.2400 c         1 MOL      0.488530
    165 O22        -4.6070    3.6470   -2.6070 o         1 MOL     -0.535467
    166 C51        -2.5410    1.5670   -1.0290 c3        1 MOL      0.046245
    167 C52        -1.8420    1.6630    0.3480 c3        1 MOL     -0.039689
    168 C53        -0.5600    0.8580    0.4520 c         1 MOL      0.556500
    169 O23        -0.4900   -0.3350    0.0310 o         1 MOL     -0.756075
    170 O24         0.3120    1.3510    1.1930 o         1 MOL     -0.756075
    171 H80        -4.6460    0.3380   -0.1070 hn        1 MOL      0.165375
    172 H81        -3.8660    3.0820   -0.3920 h1        1 MOL      0.019762
    173 H82        -1.9560    2.1240   -1.7620 hc        1 MOL     -0.026171
    174 H83        -2.5640    0.5220   -1.3100 hc        1 MOL     -0.026171
    175 H84        -2.5550    1.4060    1.1350 hc        1 MOL     -0.000077
    176 H85        -1.6890    2.7180    0.5570 hc        1 MOL     -0.000077
    177 N15        -5.2770    1.5320   -2.9470 n         1 MOL     -0.266712
    178 C54        -6.2900    1.9520   -3.9400 c3        1 MOL     -0.315125
    179 H86        -5.7930    2.4080   -4.7950 h1        1 MOL      0.128430
    180 H87        -6.8580    1.0820   -4.2720 h1        1 MOL      0.128430
    181 H88        -6.9680    2.6750   -3.4850 h1        1 MOL      0.128430
    182 H89        -5.2050    0.5820   -2.6280 hn        1 MOL      0.228364
    183 Ca1         1.8530   -0.8370    1.3680 Ca        1 MOL      1.793184
    184 O25         1.2910   -3.5700    1.8750 oh        1 MOL     -0.814807
    185 H90         0.8940   -4.4180    2.0740 ho        1 MOL      0.389921
    186 H91         2.0300   -3.4980    2.4730 ho        1 MOL      0.389921
    187 O26        -0.0080   -1.0020    3.2550 oh        1 MOL     -0.814807
    188 H92         0.3560   -0.2880    3.7730 ho        1 MOL      0.389921
    189 H93        -0.9120   -0.7490    3.0920 ho        1 MOL      0.389921
@<TRIPOS>BOND
     1    1    2 1   
     2    1    4 1   
     3    1    5 1   
     4    1    6 1   
     5    2    3 2   
     6    2    7 1   
     7    7    8 1   
     8    7   15 1   
     9    8    9 1   
    10    8   11 1   
    11    8   16 1   
    12    9   10 2   
    13    9   19 1   
    14   11   12 1   
    15   11   17 1   
    16   11   18 1   
    17   12   13 1   
    18   12   14 1   
    19   19   20 1   
    20   19   28 1   
    21   20   21 1   
    22   20   23 1   
    23   20   29 1   
    24   21   22 2   
    25   21   41 1   
    26   23   24 1   
    27   23   30 1   
    28   23   31 1   
    29   24   25 1   
    30   24   32 1   
    31   24   33 1   
    32   25   26 1   
    33   25   34 1   
    34   25   35 1   
    35   26   27 1   
    36   26   36 1   
    37   26   37 1   
    38   27   38 1   
    39   27   39 1   
    40   27   40 1   
    41   41   42 1   
    42   41   49 1   
    43   42   43 1   
    44   42   45 1   
    45   42   50 1   
    46   43   44 2   
    47   43   53 1   
    48   45   46 1   
    49   45   51 1   
    50   45   52 1   
    51   46   47 1   
    52   46   48 1   
    53   53   54 1   
    54   53   57 1   
    55   54   55 1   
    56   54   58 1   
    57   54   59 1   
    58   55   56 2   
    59   55   60 1   
    60   60   61 1   
    61   60   68 1   
    62   61   62 1   
    63   61   64 1   
    64   61   69 1   
    65   62   63 2   
    66   62   72 1   
    67   64   65 1   
    68   64   70 1   
    69   64   71 1   
    70   65   66 1   
    71   65   67 1   
    72   72   73 1   
    73   72   76 1   
    74   73   74 1   
    75   73   77 1   
    76   73   78 1   
    77   74   75 2   
    78   74   79 1   
    79   79   80 1   
    80   79   86 1   
    81   80   81 1   
    82   80   83 1   
    83   80   87 1   
    84   81   82 2   
    85   81   93 1   
    86   83   84 1   
    87   83   85 1   
    88   83   88 1   
    89   84   90 1   
    90   84   91 1   
    91   84   92 1   
    92   85   89 1   
    93   93   94 1   
    94   93  101 1   
    95   94   95 1   
    96   94   97 1   
    97   94  102 1   
    98   95   96 2   
    99   95  112 1   
   100   97   98 1   
   101   97   99 1   
   102   97  103 1   
   103   98  100 1   
   104   98  104 1   
   105   98  105 1   
   106   99  106 1   
   107   99  107 1   
   108   99  108 1   
   109  100  109 1   
   110  100  110 1   
   111  100  111 1   
   112  112  113 1   
   113  112  119 1   
   114  113  114 1   
   115  113  116 1   
   116  113  120 1   
   117  114  115 2   
   118  114  126 1   
   119  116  117 1   
   120  116  118 1   
   121  116  121 1   
   122  117  123 1   
   123  117  124 1   
   124  117  125 1   
   125  118  122 1   
   126  126  127 1   
   127  126  133 1   
   128  127  128 1   
   129  127  130 1   
   130  127  134 1   
   131  128  129 2   
   132  128  140 1   
   133  130  131 1   
   134  130  132 1   
   135  130  135 1   
   136  131  137 1   
   137  131  138 1   
   138  131  139 1   
   139  132  136 1   
   140  140  141 1   
   141  140  149 1   
   142  141  142 1   
   143  141  144 1   
   144  141  150 1   
   145  142  143 2   
   146  142  162 1   
   147  144  145 1   
   148  144  151 1   
   149  144  152 1   
   150  145  146 1   
   151  145  153 1   
   152  145  154 1   
   153  146  147 1   
   154  146  155 1   
   155  146  156 1   
   156  147  148 1   
   157  147  157 1   
   158  147  158 1   
   159  148  159 1   
   160  148  160 1   
   161  148  161 1   
   162  162  163 1   
   163  162  171 1   
   164  163  164 1   
   165  163  166 1   
   166  163  172 1   
   167  164  165 2   
   168  164  177 1   
   169  166  167 1   
   170  166  173 1   
   171  166  174 1   
   172  167  168 1   
   173  167  175 1   
   174  167  176 1   
   175  168  169 1   
   176  168  170 1   
   177  177  178 1   
   178  177  182 1   
   179  178  179 1   
   180  178  180 1   
   181  178  181 1   
   182  184  185 1   
   183  184  186 1   
   184  187  188 1   
   185  187  189 1   
@<TRIPOS>SUBSTRUCTURE
     1 MOL         1 TEMP              0 ****  ****    0 ROOT
