@<TRIPOS>MOLECULE
MOL
  179   176     1     0     0
SMALL
resp


@<TRIPOS>ATOM
      1 C1          1.4390    3.8030    6.1760 c3        1 MOL     -0.314063
      2 C2          1.3150    3.1290    4.7660 c         1 MOL      0.686322
      3 O1          2.3600    2.9110    4.0860 o         1 MOL     -0.562332
      4 H1          1.3110    3.0480    6.9520 hc        1 MOL      0.086067
      5 H2          2.4220    4.2620    6.2750 hc        1 MOL      0.086067
      6 H3          0.6690    4.5670    6.2830 hc        1 MOL      0.086067
      7 N1          0.0540    2.8670    4.2390 n         1 MOL     -0.524753
      8 C3         -0.2280    2.3930    2.9110 c3        1 MOL     -0.078480
      9 C4         -0.2770    3.5780    1.9450 c         1 MOL      0.662800
     10 O2         -0.8170    4.6250    2.3420 o         1 MOL     -0.555876
     11 C5         -1.5560    1.7330    2.9910 c3        1 MOL     -0.461877
     12 C6         -2.0050    1.1300    1.6600 c         1 MOL      1.110701
     13 O3         -2.2760   -0.0480    1.5320 o         1 MOL     -0.952192
     14 O4         -2.0880    1.8380    0.6630 o         1 MOL     -0.952192
     15 H4         -0.7250    3.0650    4.8450 hn        1 MOL      0.312373
     16 H5          0.5290    1.6870    2.5790 h1        1 MOL      0.169169
     17 H6         -2.2730    2.5130    3.2120 hc        1 MOL      0.138335
     18 H7         -1.4960    0.9740    3.7680 hc        1 MOL      0.138335
     19 N2          0.3200    3.4900    0.7060 n         1 MOL     -0.525094
     20 C7          0.4170    4.5410   -0.2960 c3        1 MOL      0.006677
     21 C8         -0.9440    5.1430   -0.7730 c         1 MOL      0.458885
     22 O5         -1.0350    6.2270   -1.2650 o         1 MOL     -0.516306
     23 C9          1.4990    4.1150   -1.3630 c3        1 MOL     -0.045075
     24 C10         2.7470    5.0190   -1.5440 c3        1 MOL     -0.075199
     25 C11         2.5760    5.9830   -2.7640 c3        1 MOL     -0.349373
     26 C12         1.8860    7.2500   -2.3810 c3        1 MOL      0.338096
     27 N3          1.5560    7.9240   -3.6550 n4        1 MOL     -0.481278
     28 H8          0.6570    2.5560    0.4980 hn        1 MOL      0.272795
     29 H9          0.8330    5.4050    0.2150 h1        1 MOL      0.083218
     30 H10         1.0590    3.8060   -2.3080 hc        1 MOL      0.044567
     31 H11         1.9580    3.2150   -0.9760 hc        1 MOL      0.044567
     32 H12         3.5080    4.2840   -1.8200 hc        1 MOL      0.106713
     33 H13         3.0710    5.5120   -0.6260 hc        1 MOL      0.106713
     34 H14         2.0490    5.4430   -3.5380 hc        1 MOL      0.100176
     35 H15         3.5250    6.3360   -3.1500 hc        1 MOL      0.100176
     36 H16         2.6360    7.8800   -1.8940 hx        1 MOL      0.013816
     37 H17         1.0600    7.1070   -1.6950 hx        1 MOL      0.013816
     38 H18         2.3150    8.1600   -4.2750 hn        1 MOL      0.340260
     39 H19         1.0100    7.3010   -4.2330 hn        1 MOL      0.340260
     40 H20         0.9360    8.7020   -3.4660 hn        1 MOL      0.340260
     41 N4         -1.9480    4.2490   -0.8850 n         1 MOL     -0.318925
     42 C13        -3.2870    4.5540   -1.4590 c3        1 MOL      0.073199
     43 C14        -4.5260    4.2310   -0.6040 c         1 MOL      0.403774
     44 O6         -5.6230    4.4870   -1.0600 o         1 MOL     -0.533287
     45 C15        -3.4000    3.7890   -2.8070 c3        1 MOL     -0.198953
     46 C16        -3.2540    2.2970   -2.8300 c         1 MOL      0.876234
     47 O7         -3.2300    1.7000   -1.7990 o         1 MOL     -0.769890
     48 O8         -3.3400    1.6650   -3.8650 o         1 MOL     -0.769890
     49 H21        -1.7720    3.2770   -0.6620 hn        1 MOL      0.281921
     50 H22        -3.2840    5.6370   -1.6100 h1        1 MOL      0.078663
     51 H23        -2.6200    4.1770   -3.4680 hc        1 MOL      0.031883
     52 H24        -4.3560    3.9570   -3.2970 hc        1 MOL      0.031883
     53 N5         -4.4060    3.4900    0.4700 n         1 MOL     -0.175016
     54 C17        -5.5920    3.2310    1.2800 c3        1 MOL     -0.162674
     55 C18        -6.3570    1.9720    0.7910 c         1 MOL      0.503138
     56 O9         -7.5110    1.8010    1.2600 o         1 MOL     -0.574918
     57 H25        -3.4880    3.1560    0.7410 hn        1 MOL      0.178478
     58 H26        -6.3220    4.0230    1.2220 h1        1 MOL      0.101966
     59 H27        -5.2070    3.1500    2.3000 h1        1 MOL      0.101966
     60 N6         -5.7790    1.1430   -0.0720 n         1 MOL     -0.243454
     61 C19        -6.5660    0.0860   -0.7780 c3        1 MOL      0.020356
     62 C20        -6.8700   -1.0720    0.1670 c         1 MOL      0.353213
     63 O10        -7.6910   -1.9180   -0.1680 o         1 MOL     -0.504647
     64 C21        -5.7790   -0.4030   -2.0340 c3        1 MOL     -0.329465
     65 C22        -4.9200   -1.5630   -1.6700 c         1 MOL      0.633471
     66 N7         -5.1860   -2.6960   -2.2830 n         1 MOL     -0.767277
     67 O11        -4.0500   -1.3700   -0.8560 o         1 MOL     -0.623921
     68 H28        -4.8480    1.3860   -0.3790 hn        1 MOL      0.270260
     69 H29        -7.4900    0.5260   -1.1490 h1        1 MOL      0.131822
     70 H30        -5.2180    0.3350   -2.6140 hc        1 MOL      0.126690
     71 H31        -6.5710   -0.7500   -2.7080 hc        1 MOL      0.126690
     72 H32        -6.0500   -2.7370   -2.8080 hn        1 MOL      0.371119
     73 H33        -4.6680   -3.5430   -2.1380 hn        1 MOL      0.371119
     74 N8         -6.2240   -1.1730    1.3560 n         1 MOL     -0.139058
     75 C23        -6.2860   -2.1990    2.3740 c3        1 MOL     -0.131590
     76 C24        -5.1060   -3.0900    2.5040 c         1 MOL      0.539690
     77 O12        -5.1890   -3.9240    3.4160 o         1 MOL     -0.549240
     78 H34        -5.6410   -0.3870    1.6240 hn        1 MOL      0.188938
     79 H35        -7.1870   -2.7870    2.2090 h1        1 MOL      0.094809
     80 H36        -6.4300   -1.6270    3.2960 h1        1 MOL      0.094809
     81 N9         -4.0500   -2.9510    1.6100 n         1 MOL     -0.426529
     82 C25        -2.8250   -3.7460    1.6930 c3        1 MOL      0.066791
     83 C26        -1.5600   -3.0010    1.2260 c         1 MOL      0.664735
     84 O13        -1.4970   -2.3360    0.1910 o         1 MOL     -0.683840
     85 C27        -3.0760   -5.1260    1.0630 c3        1 MOL     -0.229806
     86 C28        -2.8350   -5.3700   -0.4140 ca        1 MOL      0.127077
     87 C29        -3.9440   -5.6440   -1.1620 ca        1 MOL     -0.152105
     88 C30        -1.5360   -5.4640   -0.9310 ca        1 MOL     -0.152105
     89 C31        -3.7620   -5.7680   -2.5440 ca        1 MOL     -0.251423
     90 C32        -1.3150   -5.5690   -2.3090 ca        1 MOL     -0.251423
     91 C33        -2.4780   -5.6860   -3.1330 ca        1 MOL      0.344448
     92 O14        -2.3500   -5.7440   -4.4820 oh        1 MOL     -0.532861
     93 H37        -4.0790   -2.0970    1.0750 hn        1 MOL      0.374262
     94 H38        -2.5270   -3.9350    2.7280 h1        1 MOL      0.040812
     95 H39        -4.0580   -5.5300    1.3150 hc        1 MOL      0.089608
     96 H40        -2.3500   -5.8070    1.5080 hc        1 MOL      0.089608
     97 H41        -4.8550   -5.7210   -0.5850 ha        1 MOL      0.137811
     98 H42        -0.6980   -5.2010   -0.2990 ha        1 MOL      0.137811
     99 H43        -4.6560   -5.8580   -3.1540 ha        1 MOL      0.136663
    100 H44        -0.3210   -5.5020   -2.7330 ha        1 MOL      0.136663
    101 H45        -1.5840   -5.2170   -4.7410 ho        1 MOL      0.385918
    102 N10        -0.4940   -3.2730    1.9650 n         1 MOL     -0.475458
    103 C34         0.8280   -2.6270    1.8570 c3        1 MOL      0.058597
    104 C35         1.8370   -3.6770    1.2070 c         1 MOL      0.436521
    105 O15         1.9500   -4.7900    1.7690 o         1 MOL     -0.532813
    106 C36         1.1600   -2.1240    3.2700 c3        1 MOL      0.129629
    107 C37        -0.0430   -1.5240    4.0520 c3        1 MOL      0.073452
    108 C38         2.4380   -1.2310    3.1700 c3        1 MOL     -0.238361
    109 C39         0.3830   -0.7630    5.3660 c3        1 MOL     -0.159795
    110 H46        -0.7250   -3.8120    2.7880 hn        1 MOL      0.281652
    111 H47         0.8120   -1.7860    1.1620 h1        1 MOL      0.125791
    112 H48         1.5320   -2.9550    3.8820 hc        1 MOL      0.001390
    113 H49        -0.8010   -2.2550    4.3120 hc        1 MOL     -0.011903
    114 H50        -0.5230   -0.8200    3.3590 hc        1 MOL     -0.011903
    115 H51         2.7670   -1.0760    4.2000 hc        1 MOL      0.044254
    116 H52         3.2950   -1.7140    2.6920 hc        1 MOL      0.044254
    117 H53         2.1920   -0.2950    2.6800 hc        1 MOL      0.044254
    118 H54         0.9800   -1.4770    5.9390 hc        1 MOL      0.038807
    119 H55         1.0030    0.0810    5.0570 hc        1 MOL      0.038807
    120 H56        -0.4020   -0.3810    6.0210 hc        1 MOL      0.038807
    121 N11         2.5930   -3.2160    0.1690 n         1 MOL     -0.418215
    122 C40         3.7870   -3.8500   -0.3470 c3        1 MOL      0.506765
    123 C41         5.0530   -3.0560   -0.1110 c         1 MOL     -0.020588
    124 O16         5.0530   -1.9670    0.3620 o         1 MOL     -0.109574
    125 C42         3.6120   -4.1620   -1.8560 c3        1 MOL     -0.026284
    126 O17         2.5800   -5.0220   -2.0900 oh        1 MOL     -0.526461
    127 H57         2.3650   -2.3040   -0.1970 hn        1 MOL      0.195097
    128 H58         3.9250   -4.7960    0.1770 h1        1 MOL      0.033947
    129 H59         4.4960   -4.7950   -1.9520 h1        1 MOL      0.044052
    130 H60         3.6080   -3.2510   -2.4420 h1        1 MOL      0.044052
    131 H61         1.8930   -4.4240   -2.4020 ho        1 MOL      0.380998
    132 N12         6.2210   -3.6740   -0.1960 n         1 MOL     -0.371415
    133 C43         7.5900   -3.1580    0.0670 c3        1 MOL      0.159178
    134 C44         7.8350   -1.7130   -0.4850 c         1 MOL      0.384411
    135 O18         8.2810   -0.8210    0.2430 o         1 MOL     -0.532460
    136 C45         8.6710   -4.1470   -0.4660 c3        1 MOL     -0.410800
    137 H62         6.1810   -4.6230   -0.5430 hn        1 MOL      0.266621
    138 H63         7.6850   -3.0590    1.1440 h1        1 MOL      0.084854
    139 H64         9.6710   -3.8850   -0.1230 hc        1 MOL      0.125374
    140 H65         8.5220   -5.1970   -0.2310 hc        1 MOL      0.125374
    141 H66         8.8310   -3.9570   -1.5220 hc        1 MOL      0.125374
    142 N13         7.3790   -1.4490   -1.6800 n         1 MOL     -0.142609
    143 C46         7.4130   -0.1160   -2.2980 c3        1 MOL      0.042355
    144 C47         6.5510    1.0030   -1.6890 c         1 MOL      0.397073
    145 O19         6.6450    2.1700   -1.9890 o         1 MOL     -0.515195
    146 C48         7.0680   -0.4000   -3.8100 c3        1 MOL     -0.412568
    147 H67         7.2820   -2.2310   -2.3220 hn        1 MOL      0.153038
    148 H68         8.4500    0.1960   -2.1540 h1        1 MOL      0.093599
    149 H69         7.3160    0.5250   -4.3360 hc        1 MOL      0.121636
    150 H70         7.8580   -1.0620   -4.1760 hc        1 MOL      0.121636
    151 H71         6.0540   -0.7790   -3.9800 hc        1 MOL      0.121636
    152 N14         5.6480    0.5670   -0.8010 n         1 MOL     -0.009073
    153 C49         4.9260    1.4520    0.0370 c3        1 MOL     -0.025236
    154 C50         5.6370    1.7060    1.3650 c         1 MOL      0.470450
    155 O20         5.8680    2.8380    1.7880 o         1 MOL     -0.513351
    156 C51         3.5060    0.9170    0.1910 c3        1 MOL      0.166153
    157 C52         2.9180    0.4460   -1.1740 c3        1 MOL     -0.102058
    158 C53         1.4710    0.1550   -0.9400 c         1 MOL      0.532853
    159 O21         0.6550    0.9200   -0.4350 o         1 MOL     -0.647002
    160 O22         1.0210   -1.0100   -1.2310 o         1 MOL     -0.647002
    161 H72         5.3890   -0.4020   -0.6410 hn        1 MOL      0.017509
    162 H73         4.7710    2.4110   -0.4570 h1        1 MOL     -0.005795
    163 H74         2.7990    1.5820    0.6900 hc        1 MOL     -0.032939
    164 H75         3.4410   -0.0430    0.7040 hc        1 MOL     -0.032939
    165 H76         3.4780   -0.4300   -1.4900 hc        1 MOL      0.012847
    166 H77         3.1430    1.1210   -1.9970 hc        1 MOL      0.012847
    167 N15         6.0590    0.6120    2.0690 n         1 MOL     -0.193165
    168 C54         6.9570    0.7970    3.2300 c3        1 MOL     -0.311124
    169 H78         7.4010   -0.1610    3.5010 h1        1 MOL      0.126581
    170 H79         7.7470    1.5020    2.9710 h1        1 MOL      0.126581
    171 H80         6.3860    1.1840    4.0730 h1        1 MOL      0.126581
    172 H81         5.7100   -0.2910    1.7930 hn        1 MOL      0.158185
    173 Ca1        -1.6470   -0.0920   -1.0060 Ca        1 MOL      1.840694
    174 O23        -0.4220    1.1670   -3.3340 oh        1 MOL     -0.873554
    175 H82         0.4770    1.2280   -3.6550 ho        1 MOL      0.417373
    176 H83        -0.9640    1.2160   -4.1300 ho        1 MOL      0.417373
    177 O24        -1.7480   -1.3510   -3.3480 oh        1 MOL     -0.873554
    178 H84        -2.5590   -1.2780   -3.8440 ho        1 MOL      0.417373
    179 H85        -1.0550   -1.3740   -4.0070 ho        1 MOL      0.417373
@<TRIPOS>BOND
     1    1    2 1   
     2    1    4 1   
     3    1    5 1   
     4    1    6 1   
     5    2    3 2   
     6    2    7 1   
     7    7    8 1   
     8    7   15 1   
     9    8    9 1   
    10    8   11 1   
    11    8   16 1   
    12    9   10 2   
    13    9   19 1   
    14   11   12 1   
    15   11   17 1   
    16   11   18 1   
    17   12   13 1   
    18   12   14 1   
    19   19   20 1   
    20   19   28 1   
    21   20   21 1   
    22   20   23 1   
    23   20   29 1   
    24   21   22 2   
    25   21   41 1   
    26   23   24 1   
    27   23   30 1   
    28   23   31 1   
    29   24   25 1   
    30   24   32 1   
    31   24   33 1   
    32   25   26 1   
    33   25   34 1   
    34   25   35 1   
    35   26   27 1   
    36   26   36 1   
    37   26   37 1   
    38   27   38 1   
    39   27   39 1   
    40   27   40 1   
    41   41   42 1   
    42   41   49 1   
    43   42   43 1   
    44   42   45 1   
    45   42   50 1   
    46   43   44 2   
    47   43   53 1   
    48   45   46 1   
    49   45   51 1   
    50   45   52 1   
    51   46   47 1   
    52   46   48 1   
    53   53   54 1   
    54   53   57 1   
    55   54   55 1   
    56   54   58 1   
    57   54   59 1   
    58   55   56 2   
    59   55   60 1   
    60   60   61 1   
    61   60   68 1   
    62   61   62 1   
    63   61   64 1   
    64   61   69 1   
    65   62   63 2   
    66   62   74 1   
    67   64   65 1   
    68   64   70 1   
    69   64   71 1   
    70   65   66 1   
    71   65   67 2   
    72   66   72 1   
    73   66   73 1   
    74   74   75 1   
    75   74   78 1   
    76   75   76 1   
    77   75   79 1   
    78   75   80 1   
    79   76   77 2   
    80   76   81 1   
    81   81   82 1   
    82   81   93 1   
    83   82   83 1   
    84   82   85 1   
    85   82   94 1   
    86   83   84 2   
    87   83  102 1   
    88   85   86 1   
    89   85   95 1   
    90   85   96 1   
    91   86   87 ar  
    92   86   88 ar  
    93   87   89 ar  
    94   87   97 1   
    95   88   90 ar  
    96   88   98 1   
    97   89   91 ar  
    98   89   99 1   
    99   90   91 ar  
   100   90  100 1   
   101   91   92 1   
   102   92  101 1   
   103  102  103 1   
   104  102  110 1   
   105  103  104 1   
   106  103  106 1   
   107  103  111 1   
   108  104  105 2   
   109  104  121 1   
   110  106  107 1   
   111  106  108 1   
   112  106  112 1   
   113  107  109 1   
   114  107  113 1   
   115  107  114 1   
   116  108  115 1   
   117  108  116 1   
   118  108  117 1   
   119  109  118 1   
   120  109  119 1   
   121  109  120 1   
   122  121  122 1   
   123  121  127 1   
   124  122  123 1   
   125  122  125 1   
   126  122  128 1   
   127  123  124 2   
   128  123  132 1   
   129  125  126 1   
   130  125  129 1   
   131  125  130 1   
   132  126  131 1   
   133  132  133 1   
   134  132  137 1   
   135  133  134 1   
   136  133  136 1   
   137  133  138 1   
   138  134  135 2   
   139  134  142 1   
   140  136  139 1   
   141  136  140 1   
   142  136  141 1   
   143  142  143 1   
   144  142  147 1   
   145  143  144 1   
   146  143  146 1   
   147  143  148 1   
   148  144  145 2   
   149  144  152 1   
   150  146  149 1   
   151  146  150 1   
   152  146  151 1   
   153  152  153 1   
   154  152  161 1   
   155  153  154 1   
   156  153  156 1   
   157  153  162 1   
   158  154  155 2   
   159  154  167 1   
   160  156  157 1   
   161  156  163 1   
   162  156  164 1   
   163  157  158 1   
   164  157  165 1   
   165  157  166 1   
   166  158  159 1   
   167  158  160 1   
   168  167  168 1   
   169  167  172 1   
   170  168  169 1   
   171  168  170 1   
   172  168  171 1   
   173  174  175 1   
   174  174  176 1   
   175  177  178 1   
   176  177  179 1   
@<TRIPOS>SUBSTRUCTURE
     1 MOL         1 TEMP              0 ****  ****    0 ROOT
