@<TRIPOS>MOLECULE
MOL
  189   185     1     0     0
SMALL
resp


@<TRIPOS>ATOM
      1 C1          0.6580   -4.3760    6.0770 c3        1 MOL     -0.464579
      2 C2          1.0610   -3.8850    4.7040 c         1 MOL      0.713602
      3 O1          1.0090   -2.6380    4.5200 o         1 MOL     -0.618190
      4 H1          0.2280   -5.3740    5.9930 hc        1 MOL      0.119526
      5 H2          1.5350   -4.4120    6.7220 hc        1 MOL      0.119526
      6 H3         -0.0800   -3.6970    6.5030 hc        1 MOL      0.119526
      7 N1          1.4030   -4.6990    3.7360 n         1 MOL     -0.537711
      8 C3          1.9130   -4.2570    2.4520 c3        1 MOL      0.103732
      9 C4          1.7580   -5.2640    1.2910 c         1 MOL      0.582240
     10 O2          1.8180   -6.4600    1.4700 o         1 MOL     -0.587298
     11 C5          3.4480   -4.0120    2.6260 c3        1 MOL     -0.228604
     12 C6          4.1160   -3.3060    1.4570 c         1 MOL      0.797927
     13 O3          5.3580   -3.2380    1.5170 o         1 MOL     -0.710358
     14 O4          3.4490   -2.7810    0.5530 o         1 MOL     -0.710358
     15 H4          1.3130   -5.6870    3.9270 hn        1 MOL      0.292819
     16 H5          1.4460   -3.2840    2.2600 h1        1 MOL      0.144379
     17 H6          4.0290   -4.9150    2.8240 hc        1 MOL      0.044986
     18 H7          3.6590   -3.3550    3.4760 hc        1 MOL      0.044986
     19 N2          1.5130   -4.7570    0.0600 n         1 MOL     -0.346236
     20 C7          1.3800   -5.5110   -1.1770 c3        1 MOL     -0.050004
     21 C8          2.6170   -5.3620   -2.0680 c         1 MOL      0.629870
     22 O5          2.9200   -6.3000   -2.7400 o         1 MOL     -0.617422
     23 C9          0.0910   -5.2280   -1.8890 c3        1 MOL      0.365886
     24 C10        -1.1430   -5.7050   -0.9750 c3        1 MOL     -0.053422
     25 C11        -0.1150   -5.8440   -3.2560 c3        1 MOL     -0.407999
     26 C12        -2.5040   -5.1730   -1.3650 c3        1 MOL     -0.055698
     27 H8          1.4770   -3.7480    0.0290 hn        1 MOL      0.039224
     28 H9          1.2180   -6.5720   -1.0040 h1        1 MOL      0.031387
     29 H10        -0.0110   -4.1410   -2.0040 hc        1 MOL     -0.000290
     30 H11        -0.9520   -5.2160   -0.0240 hc        1 MOL     -0.002960
     31 H12        -1.1560   -6.7960   -1.0130 hc        1 MOL     -0.002960
     32 H13         0.6070   -5.5660   -4.0220 hc        1 MOL      0.078237
     33 H14        -0.0720   -6.9210   -3.0910 hc        1 MOL      0.078237
     34 H15        -1.1620   -5.6470   -3.4980 hc        1 MOL      0.078237
     35 H16        -2.4700   -4.0860   -1.4900 hc        1 MOL      0.020797
     36 H17        -2.7950   -5.5650   -2.3320 hc        1 MOL      0.020797
     37 H18        -3.2060   -5.5640   -0.6390 hc        1 MOL      0.020797
     38 N3          3.1860   -4.1850   -2.1840 n         1 MOL     -0.471761
     39 C13         4.0640   -3.7530   -3.2870 c3        1 MOL      0.148899
     40 C14         5.3540   -3.1360   -2.7810 c         1 MOL      0.320470
     41 O6          6.1890   -2.8820   -3.6980 o         1 MOL     -0.561612
     42 C15         3.2110   -2.7390   -4.0900 c3        1 MOL     -0.462475
     43 C16         2.4240   -1.6830   -3.3340 c         1 MOL      0.744032
     44 O7          2.6410   -1.4030   -2.1670 o         1 MOL     -0.697362
     45 O8          1.4860   -1.0810   -3.9570 o         1 MOL     -0.697362
     46 H19         2.8340   -3.4480   -1.5910 hn        1 MOL      0.403529
     47 H20         4.4020   -4.6310   -3.8440 h1        1 MOL      0.091830
     48 H21         2.4860   -3.3730   -4.6000 hc        1 MOL      0.131181
     49 H22         3.8520   -2.2120   -4.7980 hc        1 MOL      0.131181
     50 N4          5.5670   -2.7260   -1.5070 n         1 MOL     -0.069025
     51 C17         6.7930   -2.1430   -0.9290 c3        1 MOL     -0.034218
     52 C18         7.2550   -0.7590   -1.4450 c         1 MOL      0.422458
     53 O9          8.4570   -0.6170   -1.5730 o         1 MOL     -0.601926
     54 H23         4.7940   -2.8580   -0.8770 hn        1 MOL      0.007148
     55 H24         7.6160   -2.8330   -1.1020 h1        1 MOL      0.065368
     56 H25         6.7200   -2.0380    0.1490 h1        1 MOL      0.065368
     57 N5          6.3120    0.0700   -1.8380 n         1 MOL     -0.125949
     58 C19         6.5750    1.3940   -2.4470 c3        1 MOL     -0.093317
     59 C20         6.9870    2.4760   -1.3900 c         1 MOL      0.486440
     60 O10         7.2740    3.5870   -1.8770 o         1 MOL     -0.538551
     61 C21         5.2750    1.8450   -3.2020 c3        1 MOL     -0.175405
     62 C22         4.0310    1.8170   -2.3920 c         1 MOL      0.788454
     63 O11         3.9490    1.2790   -1.2840 o         1 MOL     -0.727028
     64 O12         3.0610    2.5670   -2.7830 o         1 MOL     -0.727028
     65 H26         5.3380   -0.1380   -1.6990 hn        1 MOL      0.198139
     66 H27         7.3340    1.4290   -3.2230 h1        1 MOL      0.126136
     67 H28         5.2060    1.2420   -4.1020 hc        1 MOL      0.055000
     68 H29         5.3410    2.8820   -3.5150 hc        1 MOL      0.055000
     69 N6          7.1610    2.1900   -0.0820 n         1 MOL     -0.332537
     70 C23         7.5340    3.1170    1.0020 c3        1 MOL     -0.109198
     71 C24         6.2910    3.8520    1.6320 c         1 MOL      0.525565
     72 O13         6.4890    4.7970    2.4150 o         1 MOL     -0.544144
     73 H30         7.0590    1.2190    0.1870 hn        1 MOL      0.246382
     74 H31         8.1150    3.9170    0.5380 h1        1 MOL      0.097324
     75 H32         8.1260    2.7390    1.8380 h1        1 MOL      0.097324
     76 N7          5.0210    3.4570    1.2510 n         1 MOL     -0.565015
     77 C25         3.7620    4.1300    1.5710 c3        1 MOL      0.109122
     78 C26         2.5780    3.1590    1.5780 c         1 MOL      0.482648
     79 O14         2.6290    1.9690    1.2340 o         1 MOL     -0.552960
     80 C27         3.3760    5.2030    0.5640 c3        1 MOL      0.092523
     81 C28         4.4520    6.1570   -0.0620 c3        1 MOL     -0.424488
     82 C29         3.8320    7.3040   -0.8580 c         1 MOL      0.728082
     83 N8          3.5270    7.1320   -2.0910 n         1 MOL     -0.801484
     84 O15         3.6970    8.4380   -0.4530 o         1 MOL     -0.606465
     85 H33         4.8770    2.5930    0.7430 hn        1 MOL      0.390153
     86 H34         3.6840    4.6450    2.5230 h1        1 MOL      0.052062
     87 H35         2.6370    5.8780    0.9810 hc        1 MOL      0.035627
     88 H36         3.0080    4.7580   -0.3650 hc        1 MOL      0.035627
     89 H37         5.1150    5.5700   -0.6940 hc        1 MOL      0.134210
     90 H38         5.0360    6.6170    0.7390 hc        1 MOL      0.134210
     91 H39         3.7980    6.2700   -2.5480 hn        1 MOL      0.366627
     92 H40         3.1040    7.8490   -2.6560 hn        1 MOL      0.366627
     93 N9          1.4470    3.7210    2.1010 n         1 MOL     -0.615300
     94 C30         0.1430    3.0860    2.4570 c3        1 MOL      0.342760
     95 C31        -0.9550    3.5670    1.4790 c         1 MOL      0.271992
     96 O16        -1.1920    4.7320    1.2350 o         1 MOL     -0.566449
     97 C32        -0.2360    3.4420    3.9020 c3        1 MOL      0.207115
     98 C33        -1.3960    2.4890    4.3090 c3        1 MOL     -0.289400
     99 C34         0.9140    3.2490    4.9040 c3        1 MOL     -0.289400
    100 H41         1.4600    4.6830    2.3990 hn        1 MOL      0.303257
    101 H42         0.3080    2.0170    2.3520 h1        1 MOL      0.021832
    102 H43        -0.5480    4.4870    3.9450 hc        1 MOL     -0.024396
    103 H44        -1.1610    1.4320    4.1550 hc        1 MOL      0.061259
    104 H45        -1.7290    2.7570    5.3040 hc        1 MOL      0.061259
    105 H46        -2.1860    2.8070    3.6320 hc        1 MOL      0.061259
    106 H47         1.2140    2.1970    4.9820 hc        1 MOL      0.061259
    107 H48         1.7280    3.9510    4.7420 hc        1 MOL      0.061259
    108 H49         0.5840    3.4370    5.9230 hc        1 MOL      0.061259
    109 N10        -1.6440    2.5480    0.9940 n         1 MOL      0.173190
    110 C35        -2.7900    2.6090    0.1350 c3        1 MOL      0.125396
    111 C36        -4.1160    2.3630    0.7770 c         1 MOL      0.038429
    112 O17        -4.1050    1.7580    1.8360 o         1 MOL     -0.283239
    113 C37        -2.6400    1.5750   -1.0260 c3        1 MOL     -0.462687
    114 C38        -3.6760    1.6910   -2.1280 c         1 MOL      0.841390
    115 N11        -3.8050    2.8790   -2.7360 n         1 MOL     -0.948047
    116 O18        -4.5570    0.8830   -2.2670 o         1 MOL     -0.571857
    117 H50        -1.2860    1.6070    1.1000 hn        1 MOL     -0.033484
    118 H51        -2.8460    3.5570   -0.4120 h1        1 MOL      0.008006
    119 H52        -2.8620    0.5750   -0.6720 hc        1 MOL      0.159140
    120 H53        -1.6410    1.5340   -1.4540 hc        1 MOL      0.159140
    121 H54        -3.3690    3.7510   -2.4620 hn        1 MOL      0.394884
    122 H55        -4.1710    2.9140   -3.6830 hn        1 MOL      0.394884
    123 N12        -5.2610    2.6800    0.1540 n         1 MOL      0.037127
    124 C39        -6.6160    2.4380    0.6250 c3        1 MOL      0.000232
    125 C40        -7.0240    0.9020    0.6670 c         1 MOL      0.323656
    126 O19        -7.9400    0.5590    1.4070 o         1 MOL     -0.540712
    127 C41        -7.5810    3.3280   -0.1340 c3        1 MOL      0.094513
    128 C42        -7.6060    3.1570   -1.6280 ca        1 MOL     -0.006030
    129 C43        -6.9160    4.0510   -2.5090 ca        1 MOL     -0.264133
    130 C44        -8.2890    2.0160   -2.1350 ca        1 MOL     -0.264133
    131 C45        -6.8840    3.7240   -3.9400 ca        1 MOL     -0.102583
    132 C46        -8.2460    1.6570   -3.4700 ca        1 MOL     -0.102583
    133 C47        -7.5230    2.5080   -4.3750 ca        1 MOL      0.233111
    134 O20        -7.4660    2.1100   -5.7200 oh        1 MOL     -0.571004
    135 H56        -5.2480    3.1660   -0.7310 hn        1 MOL      0.076320
    136 H57        -6.6200    2.9090    1.6110 h1        1 MOL      0.047609
    137 H58        -7.2080    4.3270    0.0730 hc        1 MOL     -0.012395
    138 H59        -8.5280    3.2020    0.3950 hc        1 MOL     -0.012395
    139 H60        -6.4870    4.9780   -2.1690 ha        1 MOL      0.171694
    140 H61        -8.8320    1.3370   -1.4890 ha        1 MOL      0.171694
    141 H62        -6.5200    4.4420   -4.6580 ha        1 MOL      0.084151
    142 H63        -8.5280    0.7280   -3.9240 ha        1 MOL      0.084151
    143 H64        -8.1460    1.4950   -6.0010 ho        1 MOL      0.428336
    144 N13        -6.2730    0.0730   -0.0540 n         1 MOL      0.077519
    145 C48        -6.3820   -1.4740    0.0530 c3        1 MOL     -0.363136
    146 C49        -5.6460   -2.0830    1.2550 c         1 MOL      0.593878
    147 O21        -5.8790   -3.2020    1.6340 o         1 MOL     -0.529144
    148 C50        -5.9810   -2.0630   -1.3390 c3        1 MOL      0.288363
    149 C51        -6.9500   -1.7560   -2.4700 c3        1 MOL     -0.145776
    150 C52        -8.3980   -2.2920   -2.0720 c         1 MOL      0.604913
    151 O22        -8.4720   -3.2310   -1.2240 o         1 MOL     -0.685671
    152 O23        -9.3330   -1.7880   -2.7150 o         1 MOL     -0.685671
    153 H65        -5.6610    0.5660   -0.6890 hn        1 MOL      0.287994
    154 H66        -7.4050   -1.7570    0.2870 h1        1 MOL      0.183200
    155 H67        -5.9380   -3.1410   -1.1740 hc        1 MOL     -0.068179
    156 H68        -4.9770   -1.8260   -1.6900 hc        1 MOL     -0.068179
    157 H69        -6.5280   -2.1300   -3.3980 hc        1 MOL      0.010208
    158 H70        -7.0450   -0.6720   -2.4950 hc        1 MOL      0.010208
    159 N14        -4.7190   -1.2810    1.7680 n         1 MOL     -0.226280
    160 C53        -3.7770   -1.6680    2.8320 c3        1 MOL     -0.045080
    161 C54        -4.2220   -1.0360    4.1340 c         1 MOL      0.553083
    162 O24        -4.2610   -1.7240    5.1240 o         1 MOL     -0.580780
    163 C55        -2.3930   -1.0330    2.4890 c3        1 MOL     -0.006014
    164 C56        -1.5860   -1.9440    1.5970 c3        1 MOL      0.216728
    165 C57        -0.4430   -1.2520    0.9400 c         1 MOL      0.664840
    166 O25         0.4750   -1.9090    0.3160 o         1 MOL     -0.694481
    167 O26        -0.3730    0.0150    0.7900 o         1 MOL     -0.694481
    168 H71        -4.5800   -0.3660    1.3770 hn        1 MOL     -0.100473
    169 H72        -3.7180   -2.7290    3.0640 h1        1 MOL      0.063706
    170 H73        -1.9050   -0.8740    3.4530 hc        1 MOL      0.028679
    171 H74        -2.5700   -0.0690    2.0190 hc        1 MOL      0.028679
    172 H75        -2.1640   -2.4870    0.8520 hc        1 MOL     -0.052928
    173 H76        -1.0750   -2.7030    2.1850 hc        1 MOL     -0.052928
    174 N15        -4.5200    0.2710    4.2210 n         1 MOL     -0.246923
    175 C58        -4.9640    1.0300    5.4440 c3        1 MOL     -0.065322
    176 H77        -4.2580    1.8350    5.6480 h1        1 MOL      0.048743
    177 H78        -5.9550    1.4510    5.2720 h1        1 MOL      0.048743
    178 H79        -4.9990    0.3540    6.2990 h1        1 MOL      0.048743
    179 H80        -4.2860    0.8560    3.4390 hn        1 MOL      0.117865
    180 Ca1         2.4570   -0.3090    0.1060 Ca        1 MOL      1.725481
    181 O27         2.0880   -0.6690    2.8350 oh        1 MOL     -0.839770
    182 H81         1.6390   -1.1910    3.5020 ho        1 MOL      0.393297
    183 H82         2.8190   -0.2700    3.3050 ho        1 MOL      0.393297
    184 O28         4.8580    0.0150    1.4430 oh        1 MOL     -0.839770
    185 H83         5.7920    0.2190    1.4270 ho        1 MOL      0.393297
    186 H84         4.6110    0.0720    2.3660 ho        1 MOL      0.393297
    187 O29         1.0940    0.9700   -2.0090 oh        1 MOL     -0.839770
    188 H85         1.6970    1.6720   -2.2640 ho        1 MOL      0.393297
    189 H86         1.2330    0.2790   -2.6590 ho        1 MOL      0.393297
@<TRIPOS>BOND
     1    1    2 1   
     2    1    4 1   
     3    1    5 1   
     4    1    6 1   
     5    2    3 2   
     6    2    7 1   
     7    7    8 1   
     8    7   15 1   
     9    8    9 1   
    10    8   11 1   
    11    8   16 1   
    12    9   10 2   
    13    9   19 1   
    14   11   12 1   
    15   11   17 1   
    16   11   18 1   
    17   12   13 1   
    18   12   14 1   
    19   19   20 1   
    20   19   27 1   
    21   20   21 1   
    22   20   23 1   
    23   20   28 1   
    24   21   22 2   
    25   21   38 1   
    26   23   24 1   
    27   23   25 1   
    28   23   29 1   
    29   24   26 1   
    30   24   30 1   
    31   24   31 1   
    32   25   32 1   
    33   25   33 1   
    34   25   34 1   
    35   26   35 1   
    36   26   36 1   
    37   26   37 1   
    38   38   39 1   
    39   38   46 1   
    40   39   40 1   
    41   39   42 1   
    42   39   47 1   
    43   40   41 2   
    44   40   50 1   
    45   42   43 1   
    46   42   48 1   
    47   42   49 1   
    48   43   44 1   
    49   43   45 1   
    50   50   51 1   
    51   50   54 1   
    52   51   52 1   
    53   51   55 1   
    54   51   56 1   
    55   52   53 2   
    56   52   57 1   
    57   57   58 1   
    58   57   65 1   
    59   58   59 1   
    60   58   61 1   
    61   58   66 1   
    62   59   60 2   
    63   59   69 1   
    64   61   62 1   
    65   61   67 1   
    66   61   68 1   
    67   62   63 1   
    68   62   64 1   
    69   69   70 1   
    70   69   73 1   
    71   70   71 1   
    72   70   74 1   
    73   70   75 1   
    74   71   72 2   
    75   71   76 1   
    76   76   77 1   
    77   76   85 1   
    78   77   78 1   
    79   77   80 1   
    80   77   86 1   
    81   78   79 2   
    82   78   93 1   
    83   80   81 1   
    84   80   87 1   
    85   80   88 1   
    86   81   82 1   
    87   81   89 1   
    88   81   90 1   
    89   82   83 1   
    90   82   84 2   
    91   83   91 1   
    92   83   92 1   
    93   93   94 1   
    94   93  100 1   
    95   94   95 1   
    96   94   97 1   
    97   94  101 1   
    98   95   96 2   
    99   95  109 1   
   100   97   98 1   
   101   97   99 1   
   102   97  102 1   
   103   98  103 1   
   104   98  104 1   
   105   98  105 1   
   106   99  106 1   
   107   99  107 1   
   108   99  108 1   
   109  109  110 1   
   110  109  117 1   
   111  110  111 1   
   112  110  113 1   
   113  110  118 1   
   114  111  112 2   
   115  111  123 1   
   116  113  114 1   
   117  113  119 1   
   118  113  120 1   
   119  114  115 1   
   120  114  116 2   
   121  115  121 1   
   122  115  122 1   
   123  123  124 1   
   124  123  135 1   
   125  124  125 1   
   126  124  127 1   
   127  124  136 1   
   128  125  126 2   
   129  125  144 1   
   130  127  128 1   
   131  127  137 1   
   132  127  138 1   
   133  128  129 ar  
   134  128  130 ar  
   135  129  131 ar  
   136  129  139 1   
   137  130  132 ar  
   138  130  140 1   
   139  131  133 ar  
   140  131  141 1   
   141  132  133 ar  
   142  132  142 1   
   143  133  134 1   
   144  134  143 1   
   145  144  145 1   
   146  144  153 1   
   147  145  146 1   
   148  145  148 1   
   149  145  154 1   
   150  146  147 2   
   151  146  159 1   
   152  148  149 1   
   153  148  155 1   
   154  148  156 1   
   155  149  150 1   
   156  149  157 1   
   157  149  158 1   
   158  150  151 1   
   159  150  152 1   
   160  159  160 1   
   161  159  168 1   
   162  160  161 1   
   163  160  163 1   
   164  160  169 1   
   165  161  162 2   
   166  161  174 1   
   167  163  164 1   
   168  163  170 1   
   169  163  171 1   
   170  164  165 1   
   171  164  172 1   
   172  164  173 1   
   173  165  166 1   
   174  165  167 1   
   175  174  175 1   
   176  174  179 1   
   177  175  176 1   
   178  175  177 1   
   179  175  178 1   
   180  181  182 1   
   181  181  183 1   
   182  184  185 1   
   183  184  186 1   
   184  187  188 1   
   185  187  189 1   
@<TRIPOS>SUBSTRUCTURE
     1 MOL         1 TEMP              0 ****  ****    0 ROOT
