@<TRIPOS>MOLECULE
MOL
  189   185     1     0     0
SMALL
resp


@<TRIPOS>ATOM
      1 C1          0.4200    2.5900    5.5500 c3        1 MOL     -0.284218
      2 C2         -0.0470    2.4670    4.0710 c         1 MOL      0.686629
      3 O1          0.7330    2.7640    3.1320 o         1 MOL     -0.701783
      4 H1          1.2410    3.3050    5.6120 hc        1 MOL      0.074011
      5 H2         -0.4100    2.9360    6.1660 hc        1 MOL      0.074011
      6 H3          0.7580    1.6170    5.9080 hc        1 MOL      0.074011
      7 N1         -1.2930    2.0460    3.8320 n         1 MOL     -0.535834
      8 C3         -1.8580    1.8790    2.5230 c3        1 MOL      0.127468
      9 C4         -2.1430    3.2160    1.7990 c         1 MOL      0.357373
     10 O2         -3.0270    3.9760    2.1330 o         1 MOL     -0.562561
     11 C5         -3.1100    1.0490    2.6570 c3        1 MOL     -0.172364
     12 C6         -3.7360    0.7890    1.3360 c         1 MOL      0.822392
     13 O3         -3.1990    1.0830    0.3150 o         1 MOL     -0.730408
     14 O4         -4.7980    0.1730    1.3300 o         1 MOL     -0.730408
     15 H4         -1.8260    1.6090    4.5680 hn        1 MOL      0.312899
     16 H5         -1.2030    1.3130    1.8480 h1        1 MOL      0.016141
     17 H6         -3.8040    1.5500    3.3320 hc        1 MOL      0.030006
     18 H7         -2.9370    0.0690    3.1030 hc        1 MOL      0.030006
     19 N2         -1.3770    3.4570    0.7480 n         1 MOL     -0.063538
     20 C7         -1.2790    4.7720    0.1010 c3        1 MOL     -0.206005
     21 C8         -2.1610    4.7700   -1.1520 c         1 MOL      0.709495
     22 O5         -1.9830    5.7040   -1.9220 o         1 MOL     -0.570589
     23 C9          0.2310    5.1530   -0.0370 c3        1 MOL      0.124295
     24 C10         0.5800    6.6710    0.0810 c3        1 MOL     -0.041407
     25 C11         0.2090    7.4120    1.3890 c3        1 MOL     -0.019877
     26 C12         0.6890    6.6940    2.6630 c3        1 MOL      0.032978
     27 N3          0.4280    7.5360    3.8990 n4        1 MOL     -0.435280
     28 H8         -0.7990    2.6790    0.4680 hn        1 MOL      0.377467
     29 H9         -1.6200    5.4620    0.8700 h1        1 MOL      0.057658
     30 H10         0.6810    4.6540   -0.8860 hc        1 MOL      0.008414
     31 H11         0.8390    4.7320    0.7760 hc        1 MOL      0.008414
     32 H12         0.1890    7.2360   -0.7610 hc        1 MOL      0.009806
     33 H13         1.6600    6.7850    0.0230 hc        1 MOL      0.009806
     34 H14        -0.8610    7.6030    1.4800 hc        1 MOL      0.032332
     35 H15         0.6650    8.4090    1.3530 hc        1 MOL      0.032332
     36 H16         1.7220    6.3620    2.5780 hx        1 MOL      0.118523
     37 H17         0.0430    5.8300    2.8020 hx        1 MOL      0.118523
     38 H18        -0.5320    7.8340    3.9100 hn        1 MOL      0.336269
     39 H19         0.6500    7.0680    4.7630 hn        1 MOL      0.336269
     40 H20         0.9920    8.3710    3.9700 hn        1 MOL      0.336269
     41 N4         -3.0780    3.7880   -1.3190 n         1 MOL     -0.553145
     42 C13        -4.0430    3.8140   -2.4320 c3        1 MOL     -0.021883
     43 C14        -5.4180    3.1460   -2.2180 c         1 MOL      0.490796
     44 O6         -6.3180    3.1590   -2.9980 o         1 MOL     -0.503043
     45 C15        -3.4460    3.3380   -3.7640 c3        1 MOL     -0.258351
     46 C16        -2.6610    2.1110   -3.6700 c         1 MOL      0.905573
     47 O7         -1.7750    1.9510   -4.5420 o         1 MOL     -0.745198
     48 O8         -2.8680    1.3400   -2.7190 o         1 MOL     -0.745198
     49 H21        -2.9350    3.0070   -0.6990 hn        1 MOL      0.225094
     50 H22        -4.4130    4.8340   -2.5380 h1        1 MOL      0.094798
     51 H23        -2.8220    4.1370   -4.1500 hc        1 MOL      0.069532
     52 H24        -4.2790    3.1260   -4.4380 hc        1 MOL      0.069532
     53 N5         -5.5350    2.5540   -1.0300 n         1 MOL     -0.238175
     54 C17        -6.7680    2.1850   -0.3950 c3        1 MOL     -0.248820
     55 C18        -7.3910    0.9300   -1.0340 c         1 MOL      0.498473
     56 O9         -8.6100    0.9620   -1.2510 o         1 MOL     -0.571324
     57 H25        -4.6770    2.4890   -0.4950 hn        1 MOL      0.262847
     58 H26        -7.4510    3.0310   -0.5150 h1        1 MOL      0.125982
     59 H27        -6.6440    2.0200    0.6740 h1        1 MOL      0.125982
     60 N6         -6.6350   -0.1000   -1.4500 n         1 MOL     -0.096078
     61 C19        -7.1300   -1.4380   -1.8920 c3        1 MOL     -0.188260
     62 C20        -7.3790   -2.5200   -0.8340 c         1 MOL      0.508869
     63 O10        -7.8750   -3.5680   -1.1840 o         1 MOL     -0.526297
     64 C21        -6.0560   -1.9360   -2.9020 c3        1 MOL     -0.085290
     65 C22        -4.5940   -1.7660   -2.4320 c         1 MOL      0.565742
     66 O11        -4.2370   -1.9980   -1.2800 o         1 MOL     -0.680045
     67 O12        -3.6580   -1.5360   -3.2640 o         1 MOL     -0.680045
     68 H28        -5.6610    0.0480   -1.2440 hn        1 MOL      0.097179
     69 H29        -8.0480   -1.3460   -2.4910 h1        1 MOL      0.150985
     70 H30        -6.2510   -1.3040   -3.7770 hc        1 MOL      0.067330
     71 H31        -6.1830   -2.9500   -3.2720 hc        1 MOL      0.067330
     72 N7         -6.8910   -2.3970    0.4280 n         1 MOL     -0.372865
     73 C23        -6.8260   -3.4400    1.4230 c3        1 MOL      0.006770
     74 C24        -5.5210   -4.1360    1.5320 c         1 MOL      0.514243
     75 O13        -5.5160   -5.1160    2.3130 o         1 MOL     -0.602991
     76 H32        -6.4510   -1.5270    0.7080 hn        1 MOL      0.254328
     77 H33        -7.5470   -4.2070    1.1580 h1        1 MOL      0.067745
     78 H34        -7.0550   -3.1780    2.4580 h1        1 MOL      0.067745
     79 N8         -4.4430   -3.6280    0.9590 n         1 MOL     -0.242906
     80 C25        -3.1050   -4.2320    0.8700 c3        1 MOL     -0.275646
     81 C26        -1.9720   -3.2040    1.1500 c         1 MOL      0.722859
     82 O14        -2.0900   -1.9980    0.8390 o         1 MOL     -0.665384
     83 C27        -2.9910   -5.0620   -0.4040 c3        1 MOL      0.479856
     84 C28        -3.9110   -6.2130   -0.3830 c3        1 MOL     -0.499649
     85 O15        -3.2360   -4.4320   -1.5870 oh        1 MOL     -0.621785
     86 H35        -4.5930   -2.7680    0.4470 hn        1 MOL      0.243422
     87 H36        -3.0120   -4.9850    1.6530 h1        1 MOL      0.116801
     88 H37        -1.9440   -5.3310   -0.5270 h1        1 MOL     -0.024514
     89 H38        -3.8110   -3.7040   -1.3570 ho        1 MOL      0.442446
     90 H39        -4.9340   -5.9080   -0.1570 hc        1 MOL      0.128962
     91 H40        -3.9710   -6.7110   -1.3430 hc        1 MOL      0.128962
     92 H41        -3.4160   -6.8760    0.3170 hc        1 MOL      0.128962
     93 N9         -0.9440   -3.7260    1.8580 n         1 MOL     -0.670406
     94 C29         0.2970   -2.9800    2.0830 c3        1 MOL      0.255133
     95 C30         1.3730   -3.6610    1.2310 c         1 MOL      0.340812
     96 O16         1.5750   -4.8530    1.2600 o         1 MOL     -0.527982
     97 C31         0.6380   -2.9990    3.5930 c3        1 MOL      0.145983
     98 C32        -0.3830   -2.1060    4.3510 c3        1 MOL      0.075847
     99 C33         2.1090   -2.6450    3.9890 c3        1 MOL     -0.311769
    100 C34        -0.3900   -2.2290    5.8080 c3        1 MOL     -0.106302
    101 H42        -0.9890   -4.7090    2.1040 hn        1 MOL      0.341868
    102 H43         0.2560   -1.9280    1.8050 h1        1 MOL      0.043267
    103 H44         0.3700   -4.0270    3.8260 hc        1 MOL     -0.020662
    104 H45        -1.3530   -2.5160    4.0680 hc        1 MOL      0.009439
    105 H46        -0.2670   -1.0940    3.9530 hc        1 MOL      0.009439
    106 H47         2.2090   -1.5700    3.7850 hc        1 MOL      0.055462
    107 H48         2.2720   -2.7740    5.0590 hc        1 MOL      0.055462
    108 H49         2.7040   -3.2550    3.3210 hc        1 MOL      0.055462
    109 H50        -1.1890   -1.6160    6.2390 hc        1 MOL      0.020274
    110 H51        -0.5830   -3.2490    6.1520 hc        1 MOL      0.020274
    111 H52         0.5110   -1.8050    6.2570 hc        1 MOL      0.020274
    112 N10         2.1980   -2.8170    0.5330 n         1 MOL     -0.060341
    113 C35         3.4020   -3.1780   -0.3170 c3        1 MOL      0.046867
    114 C36         4.7270   -2.8890    0.3480 c         1 MOL      0.432627
    115 O17         4.8350   -2.2340    1.3860 o         1 MOL     -0.392744
    116 C37         3.3720   -2.4470   -1.6860 c3        1 MOL      0.018449
    117 C38         2.1580   -2.7070   -2.5800 c3        1 MOL     -0.410604
    118 O18         3.4460   -1.1090   -1.4520 oh        1 MOL     -0.378325
    119 H53         1.7680   -1.9320    0.3430 hn        1 MOL      0.189081
    120 H54         3.4200   -4.2530   -0.5140 h1        1 MOL      0.063194
    121 H55         4.2580   -2.7190   -2.2580 h1        1 MOL     -0.011667
    122 H56         3.0290   -0.6780   -2.1980 ho        1 MOL      0.364299
    123 H57         1.2700   -2.4200   -2.0210 hc        1 MOL      0.128868
    124 H58         2.1770   -2.1500   -3.5190 hc        1 MOL      0.128868
    125 H59         2.1980   -3.7810   -2.7650 hc        1 MOL      0.128868
    126 N11         5.8030   -3.2940   -0.3270 n         1 MOL     -0.422153
    127 C39         7.2430   -2.9200   -0.0060 c3        1 MOL     -0.056699
    128 C40         7.4460   -1.3320    0.0880 c         1 MOL      0.308923
    129 O19         8.0490   -0.8830    1.0330 o         1 MOL     -0.471261
    130 C41         8.1590   -3.4830   -1.1450 c3        1 MOL      0.233767
    131 C42         8.3610   -5.0220   -1.0640 c3        1 MOL     -0.437688
    132 O20         7.5040   -3.2340   -2.4070 oh        1 MOL     -0.653609
    133 H60         5.6590   -3.7160   -1.2260 hn        1 MOL      0.265634
    134 H61         7.5050   -3.3870    0.9390 h1        1 MOL      0.149450
    135 H62         9.1130   -2.9540   -1.1950 h1        1 MOL      0.091909
    136 H63         7.2540   -4.0870   -2.7840 ho        1 MOL      0.423223
    137 H64         8.9160   -5.3560   -1.9350 hc        1 MOL      0.132067
    138 H65         8.9840   -5.2510   -0.1900 hc        1 MOL      0.132067
    139 H66         7.4090   -5.5160   -1.2210 hc        1 MOL      0.132067
    140 N12         6.8690   -0.4870   -0.7600 n         1 MOL     -0.241287
    141 C43         6.8530    1.0400   -0.7220 c3        1 MOL      0.000714
    142 C44         5.8460    1.5810    0.3360 c         1 MOL      0.364590
    143 O21         6.1860    2.5920    0.9420 o         1 MOL     -0.520121
    144 C45         6.4760    1.5970   -2.1440 c3        1 MOL     -0.025703
    145 C46         7.5380    1.1340   -3.1600 c3        1 MOL      0.008134
    146 C47         7.2180    1.7700   -4.5260 c3        1 MOL     -0.153233
    147 C48         8.3630    1.5700   -5.4180 c3        1 MOL      0.186654
    148 N13         8.2350    2.2650   -6.6960 n4        1 MOL     -0.329336
    149 H67         6.3710   -0.9490   -1.5190 hn        1 MOL      0.319278
    150 H68         7.8010    1.5070   -0.4510 h1        1 MOL      0.114968
    151 H69         6.4240    2.6780   -2.1210 hc        1 MOL      0.013648
    152 H70         5.5320    1.1020   -2.3880 hc        1 MOL      0.013648
    153 H71         7.4670    0.0510   -3.1950 hc        1 MOL      0.009475
    154 H72         8.5130    1.5020   -2.8490 hc        1 MOL      0.009475
    155 H73         7.1480    2.8580   -4.4080 hc        1 MOL      0.068864
    156 H74         6.3300    1.3880   -5.0200 hc        1 MOL      0.068864
    157 H75         8.4940    0.5180   -5.6800 hx        1 MOL      0.042642
    158 H76         9.2810    1.8960   -4.9280 hx        1 MOL      0.042642
    159 H77         9.0090    1.9770   -7.2820 hn        1 MOL      0.299310
    160 H78         7.3630    2.0260   -7.1360 hn        1 MOL      0.299310
    161 H79         8.1570    3.2550   -6.5050 hn        1 MOL      0.299310
    162 N14         4.7770    0.8890    0.6520 n         1 MOL     -0.001489
    163 C49         3.8300    1.3810    1.6950 c3        1 MOL      0.029584
    164 C50         4.3470    1.2150    3.0750 c         1 MOL      0.435881
    165 O22         4.4700    2.2370    3.7240 o         1 MOL     -0.542812
    166 C51         2.4860    0.7250    1.4620 c3        1 MOL      0.138708
    167 C52         1.7690    1.4480    0.3120 c3        1 MOL      0.003692
    168 C53         0.5530    0.7580   -0.2580 c         1 MOL      0.627836
    169 O23        -0.3870    1.4220   -0.7360 o         1 MOL     -0.755399
    170 O24         0.4650   -0.5240   -0.2900 o         1 MOL     -0.755399
    171 H80         4.5700    0.0360    0.1410 hn        1 MOL     -0.001194
    172 H81         3.7450    2.4540    1.5440 h1        1 MOL      0.044872
    173 H82         1.8470    0.7050    2.3460 hc        1 MOL     -0.038078
    174 H83         2.7120   -0.3190    1.2370 hc        1 MOL     -0.038078
    175 H84         2.4870    1.6110   -0.4970 hc        1 MOL     -0.057933
    176 H85         1.4630    2.4560    0.6120 hc        1 MOL     -0.057933
    177 N15         4.8700    0.0710    3.4750 n         1 MOL     -0.115767
    178 C54         5.7950   -0.0620    4.6580 c3        1 MOL     -0.423665
    179 H86         6.6920    0.5330    4.4860 h1        1 MOL      0.151648
    180 H87         5.2900    0.2960    5.5560 h1        1 MOL      0.151648
    181 H88         6.0720   -1.1080    4.7890 h1        1 MOL      0.151648
    182 H89         4.7640   -0.7600    2.9010 hn        1 MOL      0.179128
    183 Ca1        -2.0530   -0.5820   -1.3330 Ca        1 MOL      1.812221
    184 O25        -1.0680   -2.9200   -2.3520 oh        1 MOL     -0.821197
    185 H90        -0.7720   -3.2430   -3.2020 ho        1 MOL      0.385659
    186 H91        -1.8190   -3.4810   -2.1350 ho        1 MOL      0.385659
    187 O26        -0.3490   -0.1340   -3.4230 oh        1 MOL     -0.821197
    188 H92         0.5540    0.1550   -3.2800 ho        1 MOL      0.385659
    189 H93        -0.7620    0.5950   -3.8850 ho        1 MOL      0.385659
@<TRIPOS>BOND
     1    1    2 1   
     2    1    4 1   
     3    1    5 1   
     4    1    6 1   
     5    2    3 2   
     6    2    7 1   
     7    7    8 1   
     8    7   15 1   
     9    8    9 1   
    10    8   11 1   
    11    8   16 1   
    12    9   10 2   
    13    9   19 1   
    14   11   12 1   
    15   11   17 1   
    16   11   18 1   
    17   12   13 1   
    18   12   14 1   
    19   19   20 1   
    20   19   28 1   
    21   20   21 1   
    22   20   23 1   
    23   20   29 1   
    24   21   22 2   
    25   21   41 1   
    26   23   24 1   
    27   23   30 1   
    28   23   31 1   
    29   24   25 1   
    30   24   32 1   
    31   24   33 1   
    32   25   26 1   
    33   25   34 1   
    34   25   35 1   
    35   26   27 1   
    36   26   36 1   
    37   26   37 1   
    38   27   38 1   
    39   27   39 1   
    40   27   40 1   
    41   41   42 1   
    42   41   49 1   
    43   42   43 1   
    44   42   45 1   
    45   42   50 1   
    46   43   44 2   
    47   43   53 1   
    48   45   46 1   
    49   45   51 1   
    50   45   52 1   
    51   46   47 1   
    52   46   48 1   
    53   53   54 1   
    54   53   57 1   
    55   54   55 1   
    56   54   58 1   
    57   54   59 1   
    58   55   56 2   
    59   55   60 1   
    60   60   61 1   
    61   60   68 1   
    62   61   62 1   
    63   61   64 1   
    64   61   69 1   
    65   62   63 2   
    66   62   72 1   
    67   64   65 1   
    68   64   70 1   
    69   64   71 1   
    70   65   66 1   
    71   65   67 1   
    72   72   73 1   
    73   72   76 1   
    74   73   74 1   
    75   73   77 1   
    76   73   78 1   
    77   74   75 2   
    78   74   79 1   
    79   79   80 1   
    80   79   86 1   
    81   80   81 1   
    82   80   83 1   
    83   80   87 1   
    84   81   82 2   
    85   81   93 1   
    86   83   84 1   
    87   83   85 1   
    88   83   88 1   
    89   84   90 1   
    90   84   91 1   
    91   84   92 1   
    92   85   89 1   
    93   93   94 1   
    94   93  101 1   
    95   94   95 1   
    96   94   97 1   
    97   94  102 1   
    98   95   96 2   
    99   95  112 1   
   100   97   98 1   
   101   97   99 1   
   102   97  103 1   
   103   98  100 1   
   104   98  104 1   
   105   98  105 1   
   106   99  106 1   
   107   99  107 1   
   108   99  108 1   
   109  100  109 1   
   110  100  110 1   
   111  100  111 1   
   112  112  113 1   
   113  112  119 1   
   114  113  114 1   
   115  113  116 1   
   116  113  120 1   
   117  114  115 2   
   118  114  126 1   
   119  116  117 1   
   120  116  118 1   
   121  116  121 1   
   122  117  123 1   
   123  117  124 1   
   124  117  125 1   
   125  118  122 1   
   126  126  127 1   
   127  126  133 1   
   128  127  128 1   
   129  127  130 1   
   130  127  134 1   
   131  128  129 2   
   132  128  140 1   
   133  130  131 1   
   134  130  132 1   
   135  130  135 1   
   136  131  137 1   
   137  131  138 1   
   138  131  139 1   
   139  132  136 1   
   140  140  141 1   
   141  140  149 1   
   142  141  142 1   
   143  141  144 1   
   144  141  150 1   
   145  142  143 2   
   146  142  162 1   
   147  144  145 1   
   148  144  151 1   
   149  144  152 1   
   150  145  146 1   
   151  145  153 1   
   152  145  154 1   
   153  146  147 1   
   154  146  155 1   
   155  146  156 1   
   156  147  148 1   
   157  147  157 1   
   158  147  158 1   
   159  148  159 1   
   160  148  160 1   
   161  148  161 1   
   162  162  163 1   
   163  162  171 1   
   164  163  164 1   
   165  163  166 1   
   166  163  172 1   
   167  164  165 2   
   168  164  177 1   
   169  166  167 1   
   170  166  173 1   
   171  166  174 1   
   172  167  168 1   
   173  167  175 1   
   174  167  176 1   
   175  168  169 1   
   176  168  170 1   
   177  177  178 1   
   178  177  182 1   
   179  178  179 1   
   180  178  180 1   
   181  178  181 1   
   182  184  185 1   
   183  184  186 1   
   184  187  188 1   
   185  187  189 1   
@<TRIPOS>SUBSTRUCTURE
     1 MOL         1 TEMP              0 ****  ****    0 ROOT
