@<TRIPOS>MOLECULE
MOL
  189   185     1     0     0
SMALL
resp


@<TRIPOS>ATOM
      1 C1         -0.5490    1.8500    6.3910 c3        1 MOL     -0.369258
      2 C2         -0.7680    1.6140    4.9150 c         1 MOL      0.649754
      3 O1          0.1280    1.9620    4.0840 o         1 MOL     -0.612689
      4 H1         -0.4400    2.9190    6.5760 hc        1 MOL      0.103072
      5 H2         -1.4040    1.4710    6.9520 hc        1 MOL      0.103072
      6 H3          0.3540    1.3320    6.7130 hc        1 MOL      0.103072
      7 N1         -1.9530    1.1800    4.4710 n         1 MOL     -0.541377
      8 C3         -2.4230    1.2460    3.1010 c3        1 MOL      0.130590
      9 C4         -2.6840    2.7070    2.6800 c         1 MOL      0.590574
     10 O2         -3.7660    3.1690    2.9040 o         1 MOL     -0.530194
     11 C5         -3.5940    0.2620    2.9750 c3        1 MOL     -0.392551
     12 C6         -4.1150    0.1460    1.5720 c         1 MOL      0.920202
     13 O3         -3.4890    0.6590    0.5970 o         1 MOL     -0.716479
     14 O4         -5.1720   -0.4790    1.4320 o         1 MOL     -0.716479
     15 H4         -2.5940    0.8120    5.1570 hn        1 MOL      0.320627
     16 H5         -1.6440    0.8590    2.4560 h1        1 MOL     -0.015248
     17 H6         -4.3920    0.7110    3.5690 hc        1 MOL      0.093394
     18 H7         -3.3890   -0.7310    3.3790 hc        1 MOL      0.093394
     19 N2         -1.8360    3.3800    1.8580 n         1 MOL     -0.284838
     20 C7         -2.0240    4.7730    1.4910 c3        1 MOL     -0.149518
     21 C8         -3.2270    5.0120    0.5430 c         1 MOL      0.479985
     22 O5         -3.7940    6.1310    0.5610 o         1 MOL     -0.575381
     23 C9         -0.8560    5.2750    0.6730 c3        1 MOL      0.045981
     24 C10         0.3410    5.6250    1.5100 c3        1 MOL      0.063923
     25 C11         1.5110    6.2290    0.6390 c3        1 MOL     -0.209898
     26 C12         1.7760    5.4570   -0.6250 c3        1 MOL      0.400020
     27 N3          2.7850    6.0730   -1.4650 n4        1 MOL     -0.484706
     28 H8         -0.9580    2.9050    1.6910 hn        1 MOL      0.239435
     29 H9         -2.2180    5.4780    2.2920 h1        1 MOL      0.109237
     30 H10        -1.0990    6.2450    0.2320 hc        1 MOL      0.021610
     31 H11        -0.5400    4.5310   -0.0650 hc        1 MOL      0.021610
     32 H12         0.6340    4.7130    2.0280 hc        1 MOL      0.035585
     33 H13         0.0170    6.3240    2.2720 hc        1 MOL      0.035585
     34 H14         2.4420    6.2090    1.1910 hc        1 MOL      0.039646
     35 H15         1.3290    7.2650    0.3450 hc        1 MOL      0.039646
     36 H16         0.7770    5.4510   -1.0530 hx        1 MOL     -0.032215
     37 H17         2.0780    4.4120   -0.5190 hx        1 MOL     -0.032215
     38 H18         3.6750    5.8680   -1.0460 hn        1 MOL      0.345520
     39 H19         2.7480    5.6990   -2.4090 hn        1 MOL      0.345520
     40 H20         2.6000    7.0590   -1.4630 hn        1 MOL      0.345520
     41 N4         -3.6730    4.0360   -0.3000 n         1 MOL     -0.189281
     42 C13        -4.6330    4.2070   -1.3830 c3        1 MOL      0.059254
     43 C14        -5.8300    3.1870   -1.3850 c         1 MOL      0.466576
     44 O6         -6.5500    3.1210   -2.3700 o         1 MOL     -0.527905
     45 C15        -3.9320    4.2320   -2.7890 c3        1 MOL     -0.233663
     46 C16        -2.6780    3.2670   -2.9110 c         1 MOL      0.785229
     47 O7         -2.3670    2.5000   -1.9850 o         1 MOL     -0.687573
     48 O8         -2.0500    3.2570   -4.0000 o         1 MOL     -0.687573
     49 H21        -3.1540    3.1840   -0.1480 hn        1 MOL      0.019399
     50 H22        -5.1310    5.1630   -1.2210 h1        1 MOL      0.082202
     51 H23        -3.4830    5.2240   -2.8860 hc        1 MOL      0.056869
     52 H24        -4.5680    3.9680   -3.6320 hc        1 MOL      0.056869
     53 N5         -6.0280    2.3910   -0.3330 n         1 MOL     -0.267500
     54 C17        -7.3420    1.8090   -0.0530 c3        1 MOL     -0.326969
     55 C18        -7.6850    0.5870   -0.9720 c         1 MOL      0.548489
     56 O9         -8.8520    0.0930   -0.9780 o         1 MOL     -0.583978
     57 H25        -5.2870    2.2780    0.3420 hn        1 MOL      0.246573
     58 H26        -8.1100    2.5590   -0.2460 h1        1 MOL      0.149173
     59 H27        -7.3490    1.4570    0.9790 h1        1 MOL      0.149173
     60 N6         -6.7110    0.0190   -1.6760 n         1 MOL     -0.280985
     61 C19        -6.8610   -1.2000   -2.4950 c3        1 MOL     -0.140993
     62 C20        -7.0400   -2.4060   -1.5250 c         1 MOL      0.516910
     63 O10        -7.3320   -3.5010   -1.9630 o         1 MOL     -0.545959
     64 C21        -5.6700   -1.3280   -3.4610 c3        1 MOL     -0.089231
     65 C22        -4.3550   -1.0700   -2.6740 c         1 MOL      0.546689
     66 O11        -3.7980    0.0390   -2.7500 o         1 MOL     -0.691977
     67 O12        -3.8760   -1.9430   -1.8740 o         1 MOL     -0.691977
     68 H28        -5.7760    0.3440   -1.4540 hn        1 MOL      0.346821
     69 H29        -7.7790   -1.1650   -3.0930 h1        1 MOL      0.132571
     70 H30        -5.6870   -0.6250   -4.2940 hc        1 MOL      0.063915
     71 H31        -5.6790   -2.3030   -3.9330 hc        1 MOL      0.063915
     72 N7         -6.7520   -2.2330   -0.2460 n         1 MOL     -0.270309
     73 C23        -6.6050   -3.3120    0.7310 c3        1 MOL     -0.058407
     74 C24        -5.3260   -4.1600    0.6980 c         1 MOL      0.577846
     75 O13        -5.3500   -5.2320    1.2390 o         1 MOL     -0.609217
     76 H32        -6.4340   -1.3640    0.1380 hn        1 MOL      0.263041
     77 H33        -7.4980   -3.9420    0.7630 h1        1 MOL      0.063982
     78 H34        -6.5820   -2.8190    1.7050 h1        1 MOL      0.063982
     79 N8         -4.2200   -3.6600    0.2470 n         1 MOL     -0.181883
     80 C25        -2.9450   -4.4050    0.1160 c3        1 MOL     -0.036936
     81 C26        -1.7240   -3.4570    0.4520 c         1 MOL      0.676579
     82 O14        -1.8320   -2.1970    0.4000 o         1 MOL     -0.636808
     83 C27        -2.7990   -5.0650   -1.2110 c3        1 MOL      0.416151
     84 C28        -3.2060   -6.5200   -1.2400 c3        1 MOL     -0.472657
     85 O15        -3.7350   -4.5160   -2.1980 oh        1 MOL     -0.668762
     86 H35        -4.2440   -2.6930   -0.0380 hn        1 MOL      0.034152
     87 H36        -2.8990   -5.1710    0.8900 h1        1 MOL      0.054121
     88 H37        -1.7640   -4.8940   -1.5100 h1        1 MOL     -0.036694
     89 H38        -4.0010   -3.6370   -1.9220 ho        1 MOL      0.467642
     90 H39        -4.2380   -6.5400   -0.8950 hc        1 MOL      0.120376
     91 H40        -3.2670   -6.9010   -2.2670 hc        1 MOL      0.120376
     92 H41        -2.5690   -7.1920   -0.6620 hc        1 MOL      0.120376
     93 N9         -0.5560   -4.0480    0.7750 n         1 MOL     -0.586329
     94 C29         0.6260   -3.3770    1.3250 c3        1 MOL      0.120226
     95 C30         1.7770   -3.6220    0.4340 c         1 MOL      0.424497
     96 O16         2.2280   -4.7760    0.3430 o         1 MOL     -0.530546
     97 C31         0.7870   -3.9800    2.7820 c3        1 MOL      0.064444
     98 C32        -0.3790   -3.5460    3.6890 c3        1 MOL     -0.031453
     99 C33         2.1090   -3.6270    3.4030 c3        1 MOL     -0.389074
    100 C34        -0.6510   -2.1400    4.0250 c3        1 MOL     -0.052949
    101 H42        -0.4780   -5.0530    0.7080 hn        1 MOL      0.300284
    102 H43         0.2780   -2.3420    1.3630 h1        1 MOL      0.166164
    103 H44         0.6980   -5.0620    2.6820 hc        1 MOL      0.036351
    104 H45        -0.1960   -4.0010    4.6640 hc        1 MOL      0.010724
    105 H46        -1.3060   -3.9200    3.2590 hc        1 MOL      0.010724
    106 H47         2.8890   -4.2930    3.0290 hc        1 MOL      0.092136
    107 H48         2.3360   -2.5670    3.3210 hc        1 MOL      0.092136
    108 H49         2.1070   -3.8030    4.4810 hc        1 MOL      0.092136
    109 H50         0.1280   -1.5640    4.5180 hc        1 MOL      0.034251
    110 H51        -0.8320   -1.6040    3.0870 hc        1 MOL      0.034251
    111 H52        -1.5270   -2.1450    4.6810 hc        1 MOL      0.034251
    112 N10         2.3550   -2.5970   -0.1850 n         1 MOL     -0.088212
    113 C35         3.5300   -2.6060   -1.0220 c3        1 MOL     -0.039482
    114 C36         4.8160   -2.3340   -0.2540 c         1 MOL      0.370571
    115 O17         4.7520   -1.7960    0.8510 o         1 MOL     -0.279790
    116 C37         3.4620   -1.6580   -2.2250 c3        1 MOL      0.505966
    117 C38         2.3490   -1.9990   -3.2460 c3        1 MOL     -0.767527
    118 O18         3.3320   -0.3490   -1.7840 oh        1 MOL     -0.653612
    119 H53         2.0270   -1.6870    0.0980 hn        1 MOL     -0.041695
    120 H54         3.6280   -3.6520   -1.3260 h1        1 MOL      0.050176
    121 H55         4.4630   -1.7660   -2.6530 h1        1 MOL     -0.060453
    122 H56         2.5050   -0.3310   -1.2990 ho        1 MOL      0.449142
    123 H57         2.5090   -2.9820   -3.6910 hc        1 MOL      0.202150
    124 H58         1.4330   -2.1120   -2.6540 hc        1 MOL      0.202150
    125 H59         2.1720   -1.1570   -3.9250 hc        1 MOL      0.202150
    126 N11         6.0250   -2.6160   -0.7690 n         1 MOL     -0.330403
    127 C39         7.3750   -2.2190   -0.1900 c3        1 MOL     -0.076987
    128 C40         7.4050   -0.6980    0.1990 c         1 MOL      0.323672
    129 O19         7.9810   -0.3790    1.2690 o         1 MOL     -0.517978
    130 C41         8.4390   -2.4550   -1.1980 c3        1 MOL      0.323588
    131 C42         8.4690   -3.8890   -1.7500 c3        1 MOL     -0.485232
    132 O20         8.2180   -1.5400   -2.2900 oh        1 MOL     -0.642414
    133 H60         5.9430   -3.1150   -1.6420 hn        1 MOL      0.241374
    134 H61         7.5940   -2.8270    0.6980 h1        1 MOL      0.154884
    135 H62         9.3910   -2.2670   -0.7050 h1        1 MOL      0.052533
    136 H63         8.7760   -1.8350   -3.0180 ho        1 MOL      0.347561
    137 H64         8.2680   -4.6140   -0.9530 hc        1 MOL      0.146237
    138 H65         7.6780   -3.9290   -2.4890 hc        1 MOL      0.146237
    139 H66         9.4320   -4.0610   -2.2330 hc        1 MOL      0.146237
    140 N12         6.7580    0.1950   -0.4780 n         1 MOL      0.021878
    141 C43         6.6470    1.6340   -0.1650 c3        1 MOL     -0.114700
    142 C44         5.6060    1.9510    0.8810 c         1 MOL      0.547812
    143 O21         5.3070    3.0920    1.1720 o         1 MOL     -0.585648
    144 C45         6.5960    2.4150   -1.5510 c3        1 MOL     -0.181800
    145 C46         7.7430    1.9750   -2.4970 c3        1 MOL      0.061517
    146 C47         7.4070    2.4100   -3.9500 c3        1 MOL     -0.121697
    147 C48         8.5800    2.0750   -4.9340 c3        1 MOL     -0.005629
    148 N13         8.7000    0.5850   -4.9390 n4        1 MOL     -0.265464
    149 H67         6.1980   -0.1820   -1.2320 hn        1 MOL      0.199885
    150 H68         7.6190    1.8010    0.2990 h1        1 MOL      0.115164
    151 H69         6.6120    3.4680   -1.2630 hc        1 MOL      0.071714
    152 H70         5.6460    2.3050   -2.0750 hc        1 MOL      0.071714
    153 H71         7.9780    0.9130   -2.5050 hc        1 MOL      0.011164
    154 H72         8.7060    2.3840   -2.2010 hc        1 MOL      0.011164
    155 H73         7.2650    3.4880   -3.9780 hc        1 MOL      0.069623
    156 H74         6.5200    1.9120   -4.3540 hc        1 MOL      0.069623
    157 H75         9.5280    2.5090   -4.5950 hx        1 MOL      0.103133
    158 H76         8.3610    2.5440   -5.8950 hx        1 MOL      0.103133
    159 H77         9.0550    0.3270   -4.0210 hn        1 MOL      0.261783
    160 H78         7.8570    0.0340   -5.0200 hn        1 MOL      0.261783
    161 H79         9.3400    0.2710   -5.6450 hn        1 MOL      0.261783
    162 N14         4.8650    0.9790    1.4060 n         1 MOL     -0.017569
    163 C49         3.9230    0.9680    2.5150 c3        1 MOL     -0.190665
    164 C50         4.4260    0.2180    3.7580 c         1 MOL      0.520553
    165 O22         4.3190    0.6770    4.8440 o         1 MOL     -0.528262
    166 C51         2.5760    0.3380    2.0190 c3        1 MOL      0.213181
    167 C52         1.9000    1.3920    1.1580 c3        1 MOL     -0.083826
    168 C53         0.7330    0.8280    0.3600 c         1 MOL      0.696416
    169 O23         0.7320   -0.2560   -0.2490 o         1 MOL     -0.680208
    170 O24        -0.2970    1.5290    0.2570 o         1 MOL     -0.680208
    171 H80         5.0810    0.0710    1.0230 hn        1 MOL     -0.202334
    172 H81         3.8250    2.0010    2.8680 h1        1 MOL      0.129981
    173 H82         1.8740    0.1520    2.8350 hc        1 MOL     -0.021382
    174 H83         2.8190   -0.6040    1.5250 hc        1 MOL     -0.021382
    175 H84         2.5270    1.8230    0.3660 hc        1 MOL      0.005737
    176 H85         1.6370    2.2740    1.7430 hc        1 MOL      0.005737
    177 N15         5.1030   -0.9470    3.6330 n         1 MOL     -0.130461
    178 C54         5.8450   -1.6340    4.7120 c3        1 MOL     -0.397138
    179 H86         6.1970   -0.8990    5.4350 h1        1 MOL      0.142998
    180 H87         5.1860   -2.3460    5.2100 h1        1 MOL      0.142998
    181 H88         6.6980   -2.1630    4.2870 h1        1 MOL      0.142998
    182 H89         5.1250   -1.3650    2.7090 hn        1 MOL      0.169414
    183 Ca1        -1.7350   -0.0190   -1.2920 Ca        1 MOL      1.755097
    184 O25         0.0220    0.2790   -3.2680 oh        1 MOL     -0.875104
    185 H90         0.3850    1.0440   -3.7090 ho        1 MOL      0.410497
    186 H91         0.1900   -0.4540   -3.8650 ho        1 MOL      0.410497
    187 O26        -1.2650   -2.4100   -2.8180 oh        1 MOL     -0.875104
    188 H92        -2.1730   -2.5890   -3.0600 ho        1 MOL      0.410497
    189 H93        -0.8350   -2.2230   -3.6540 ho        1 MOL      0.410497
@<TRIPOS>BOND
     1    1    2 1   
     2    1    4 1   
     3    1    5 1   
     4    1    6 1   
     5    2    3 2   
     6    2    7 1   
     7    7    8 1   
     8    7   15 1   
     9    8    9 1   
    10    8   11 1   
    11    8   16 1   
    12    9   10 2   
    13    9   19 1   
    14   11   12 1   
    15   11   17 1   
    16   11   18 1   
    17   12   13 1   
    18   12   14 1   
    19   19   20 1   
    20   19   28 1   
    21   20   21 1   
    22   20   23 1   
    23   20   29 1   
    24   21   22 2   
    25   21   41 1   
    26   23   24 1   
    27   23   30 1   
    28   23   31 1   
    29   24   25 1   
    30   24   32 1   
    31   24   33 1   
    32   25   26 1   
    33   25   34 1   
    34   25   35 1   
    35   26   27 1   
    36   26   36 1   
    37   26   37 1   
    38   27   38 1   
    39   27   39 1   
    40   27   40 1   
    41   41   42 1   
    42   41   49 1   
    43   42   43 1   
    44   42   45 1   
    45   42   50 1   
    46   43   44 2   
    47   43   53 1   
    48   45   46 1   
    49   45   51 1   
    50   45   52 1   
    51   46   47 1   
    52   46   48 1   
    53   53   54 1   
    54   53   57 1   
    55   54   55 1   
    56   54   58 1   
    57   54   59 1   
    58   55   56 2   
    59   55   60 1   
    60   60   61 1   
    61   60   68 1   
    62   61   62 1   
    63   61   64 1   
    64   61   69 1   
    65   62   63 2   
    66   62   72 1   
    67   64   65 1   
    68   64   70 1   
    69   64   71 1   
    70   65   66 1   
    71   65   67 1   
    72   72   73 1   
    73   72   76 1   
    74   73   74 1   
    75   73   77 1   
    76   73   78 1   
    77   74   75 2   
    78   74   79 1   
    79   79   80 1   
    80   79   86 1   
    81   80   81 1   
    82   80   83 1   
    83   80   87 1   
    84   81   82 2   
    85   81   93 1   
    86   83   84 1   
    87   83   85 1   
    88   83   88 1   
    89   84   90 1   
    90   84   91 1   
    91   84   92 1   
    92   85   89 1   
    93   93   94 1   
    94   93  101 1   
    95   94   95 1   
    96   94   97 1   
    97   94  102 1   
    98   95   96 2   
    99   95  112 1   
   100   97   98 1   
   101   97   99 1   
   102   97  103 1   
   103   98  100 1   
   104   98  104 1   
   105   98  105 1   
   106   99  106 1   
   107   99  107 1   
   108   99  108 1   
   109  100  109 1   
   110  100  110 1   
   111  100  111 1   
   112  112  113 1   
   113  112  119 1   
   114  113  114 1   
   115  113  116 1   
   116  113  120 1   
   117  114  115 2   
   118  114  126 1   
   119  116  117 1   
   120  116  118 1   
   121  116  121 1   
   122  117  123 1   
   123  117  124 1   
   124  117  125 1   
   125  118  122 1   
   126  126  127 1   
   127  126  133 1   
   128  127  128 1   
   129  127  130 1   
   130  127  134 1   
   131  128  129 2   
   132  128  140 1   
   133  130  131 1   
   134  130  132 1   
   135  130  135 1   
   136  131  137 1   
   137  131  138 1   
   138  131  139 1   
   139  132  136 1   
   140  140  141 1   
   141  140  149 1   
   142  141  142 1   
   143  141  144 1   
   144  141  150 1   
   145  142  143 2   
   146  142  162 1   
   147  144  145 1   
   148  144  151 1   
   149  144  152 1   
   150  145  146 1   
   151  145  153 1   
   152  145  154 1   
   153  146  147 1   
   154  146  155 1   
   155  146  156 1   
   156  147  148 1   
   157  147  157 1   
   158  147  158 1   
   159  148  159 1   
   160  148  160 1   
   161  148  161 1   
   162  162  163 1   
   163  162  171 1   
   164  163  164 1   
   165  163  166 1   
   166  163  172 1   
   167  164  165 2   
   168  164  177 1   
   169  166  167 1   
   170  166  173 1   
   171  166  174 1   
   172  167  168 1   
   173  167  175 1   
   174  167  176 1   
   175  168  169 1   
   176  168  170 1   
   177  177  178 1   
   178  177  182 1   
   179  178  179 1   
   180  178  180 1   
   181  178  181 1   
   182  184  185 1   
   183  184  186 1   
   184  187  188 1   
   185  187  189 1   
@<TRIPOS>SUBSTRUCTURE
     1 MOL         1 TEMP              0 ****  ****    0 ROOT
