@<TRIPOS>MOLECULE
MOL
  189   185     1     0     0
SMALL
resp


@<TRIPOS>ATOM
      1 C1          0.0820    2.1500    5.8700 c3        1 MOL     -0.399249
      2 C2         -0.1470    1.7250    4.4250 c         1 MOL      0.667371
      3 O1          0.7810    1.8230    3.6080 o         1 MOL     -0.597061
      4 H1          0.2290    3.2290    5.9130 hc        1 MOL      0.104348
      5 H2         -0.7870    1.8780    6.4710 hc        1 MOL      0.104348
      6 H3          0.9670    1.6480    6.2620 hc        1 MOL      0.104348
      7 N1         -1.4110    1.4010    4.0970 n         1 MOL     -0.506392
      8 C3         -2.0790    1.2220    2.7780 c3        1 MOL      0.105730
      9 C4         -2.4610    2.5920    2.1900 c         1 MOL      0.458569
     10 O2         -3.5690    2.9910    2.2920 o         1 MOL     -0.500170
     11 C5         -3.3200    0.3040    2.9550 c3        1 MOL     -0.176421
     12 C6         -4.0390    0.0750    1.5810 c         1 MOL      0.588804
     13 O3         -3.4300    0.4710    0.4930 o         1 MOL     -0.647250
     14 O4         -5.0660   -0.6990    1.5120 o         1 MOL     -0.647250
     15 H4         -2.0280    1.1980    4.8620 hn        1 MOL      0.296817
     16 H5         -1.3690    0.7020    2.1400 h1        1 MOL     -0.038530
     17 H6         -4.0120    0.7580    3.6590 hc        1 MOL      0.066478
     18 H7         -2.9700   -0.6360    3.3750 hc        1 MOL      0.066478
     19 N2         -1.5190    3.1930    1.5710 n         1 MOL     -0.152899
     20 C7         -1.5540    4.6490    1.3270 c3        1 MOL     -0.252256
     21 C8         -2.5470    5.0830    0.1720 c         1 MOL      0.574874
     22 O5         -2.8470    6.2780    0.0210 o         1 MOL     -0.598743
     23 C9         -0.0580    5.0160    1.0530 c3        1 MOL      0.082001
     24 C10         0.2470    6.4740    0.8760 c3        1 MOL      0.027000
     25 C11         1.8070    6.6160    0.9100 c3        1 MOL     -0.055282
     26 C12         2.2470    8.1020    1.1900 c3        1 MOL     -0.024466
     27 N3          3.6650    8.1470    1.4050 n4        1 MOL     -0.226488
     28 H8         -0.6350    2.7070    1.4510 hn        1 MOL      0.163190
     29 H9         -1.8350    5.0780    2.2910 h1        1 MOL      0.136849
     30 H10         0.3240    4.5440    0.1480 hc        1 MOL      0.046321
     31 H11         0.5230    4.7350    1.9240 hc        1 MOL      0.046321
     32 H12        -0.1590    7.0410    1.7100 hc        1 MOL      0.010676
     33 H13        -0.2330    6.8010   -0.0400 hc        1 MOL      0.010676
     34 H14         2.1880    6.3120   -0.0720 hc        1 MOL      0.033115
     35 H15         2.1740    6.0090    1.7360 hc        1 MOL      0.033115
     36 H16         1.7330    8.3090    2.1210 hx        1 MOL      0.091857
     37 H17         1.9590    8.7550    0.3730 hx        1 MOL      0.091857
     38 H18         3.8590    8.8900    2.0660 hn        1 MOL      0.287613
     39 H19         4.0840    7.2850    1.7420 hn        1 MOL      0.287613
     40 H20         4.0950    8.4090    0.5360 hn        1 MOL      0.287613
     41 N4         -3.2960    4.1920   -0.4690 n         1 MOL     -0.225703
     42 C13        -4.3740    4.3240   -1.3970 c3        1 MOL      0.107524
     43 C14        -5.6050    3.4840   -1.0950 c         1 MOL      0.371217
     44 O6         -6.5680    3.5390   -1.8340 o         1 MOL     -0.522856
     45 C15        -3.7730    4.2120   -2.8500 c3        1 MOL     -0.294692
     46 C16        -2.6930    3.0640   -3.1030 c         1 MOL      0.745304
     47 O7         -1.8880    3.2090   -4.0710 o         1 MOL     -0.652185
     48 O8         -2.5400    2.0980   -2.2910 o         1 MOL     -0.652185
     49 H21        -3.2350    3.2170   -0.2340 hn        1 MOL      0.082691
     50 H22        -4.7460    5.3390   -1.2760 h1        1 MOL      0.084771
     51 H23        -3.3760    5.2160   -3.0710 hc        1 MOL      0.077412
     52 H24        -4.5940    4.0610   -3.5540 hc        1 MOL      0.077412
     53 N5         -5.5890    2.7860   -0.0000 n         1 MOL     -0.123308
     54 C17        -6.7030    2.1100    0.5780 c3        1 MOL     -0.050244
     55 C18        -7.3400    1.0030   -0.3500 c         1 MOL      0.386455
     56 O9         -8.5280    0.8570   -0.3280 o         1 MOL     -0.550759
     57 H25        -4.7130    2.6720    0.4990 hn        1 MOL      0.068238
     58 H26        -7.4420    2.8020    0.9730 h1        1 MOL      0.079445
     59 H27        -6.3690    1.6950    1.5220 h1        1 MOL      0.079445
     60 N6         -6.4910    0.2560   -1.0440 n         1 MOL     -0.022023
     61 C19        -6.9170   -0.7490   -1.9780 c3        1 MOL     -0.082476
     62 C20        -7.2160   -2.1170   -1.2000 c         1 MOL      0.519137
     63 O10        -7.7560   -2.9800   -1.8800 o         1 MOL     -0.544866
     64 C21        -5.9850   -0.8600   -3.2140 c3        1 MOL     -0.176258
     65 C22        -4.5280   -0.9820   -2.7970 c         1 MOL      0.766741
     66 O11        -4.2050   -1.7020   -1.8590 o         1 MOL     -0.735927
     67 O12        -3.7120   -0.3320   -3.4430 o         1 MOL     -0.735927
     68 H28        -5.4950    0.3800   -0.9140 hn        1 MOL      0.119304
     69 H29        -7.9060   -0.4540   -2.3200 h1        1 MOL      0.106895
     70 H30        -6.1610    0.0790   -3.7510 hc        1 MOL      0.059481
     71 H31        -6.2390   -1.7050   -3.8530 hc        1 MOL      0.059481
     72 N7         -7.0240   -2.1720    0.1420 n         1 MOL     -0.387999
     73 C23        -7.1180   -3.4230    0.9160 c3        1 MOL      0.026509
     74 C24        -5.7340   -4.1000    1.1080 c         1 MOL      0.442994
     75 O13        -5.7290   -5.2600    1.6030 o         1 MOL     -0.563096
     76 H32        -6.4380   -1.5300    0.6520 hn        1 MOL      0.280008
     77 H33        -7.8460   -4.1520    0.5520 h1        1 MOL      0.062373
     78 H34        -7.4820   -3.1050    1.8960 h1        1 MOL      0.062373
     79 N8         -4.6050   -3.5080    0.6660 n         1 MOL     -0.137087
     80 C25        -3.3280   -4.2610    0.5530 c3        1 MOL     -0.225315
     81 C26        -2.0490   -3.4380    0.8370 c         1 MOL      0.604063
     82 O14        -2.0700   -2.1780    0.8290 o         1 MOL     -0.521390
     83 C27        -3.1330   -5.0040   -0.7780 c3        1 MOL      0.416346
     84 C28        -4.0410   -6.1210   -1.0860 c3        1 MOL     -0.672968
     85 O15        -3.2240   -4.1890   -1.9510 oh        1 MOL     -0.581232
     86 H35        -4.5970   -2.6080    0.2070 hn        1 MOL      0.178897
     87 H36        -3.2740   -4.9870    1.3670 h1        1 MOL      0.115686
     88 H37        -2.0860   -5.2750   -0.8150 h1        1 MOL      0.010610
     89 H38        -3.7320   -3.4010   -1.7120 ho        1 MOL      0.372978
     90 H39        -3.6830   -6.6270   -1.9870 hc        1 MOL      0.181422
     91 H40        -4.1220   -6.7870   -0.2330 hc        1 MOL      0.181422
     92 H41        -5.0190   -5.7140   -1.3350 hc        1 MOL      0.181422
     93 N9         -0.9040   -4.0720    1.2260 n         1 MOL     -0.642576
     94 C29         0.3550   -3.3980    1.3580 c3        1 MOL      0.216350
     95 C30         1.4110   -4.0140    0.4800 c         1 MOL      0.392978
     96 O16         1.6990   -5.2020    0.5490 o         1 MOL     -0.553035
     97 C31         0.7210   -3.2880    2.8500 c3        1 MOL      0.013324
     98 C32        -0.2200   -2.3100    3.5230 c3        1 MOL      0.212172
     99 C33         2.2590   -3.0680    3.0820 c3        1 MOL     -0.203311
    100 C34         0.1290   -2.1720    4.9510 c3        1 MOL     -0.092464
    101 H42        -0.9600   -5.0580    1.4560 hn        1 MOL      0.306927
    102 H43         0.1850   -2.3750    1.0190 h1        1 MOL      0.070389
    103 H44         0.4720   -4.2450    3.3070 hc        1 MOL      0.005956
    104 H45        -1.2640   -2.5970    3.4750 hc        1 MOL     -0.000899
    105 H46        -0.0430   -1.3720    2.9890 hc        1 MOL     -0.000899
    106 H47         2.3740   -3.3320    4.1340 hc        1 MOL      0.034447
    107 H48         3.0100   -3.6060    2.5020 hc        1 MOL      0.034447
    108 H49         2.4180   -2.0050    2.9070 hc        1 MOL      0.034447
    109 H50        -0.6510   -1.5580    5.4120 hc        1 MOL     -0.001514
    110 H51         0.0340   -3.1470    5.4380 hc        1 MOL     -0.001514
    111 H52         1.1120   -1.7070    5.0570 hc        1 MOL     -0.001514
    112 N10         2.0930   -3.1610   -0.2080 n         1 MOL     -0.003041
    113 C35         3.1930   -3.4830   -1.0680 c3        1 MOL     -0.013046
    114 C36         4.5850   -3.3250   -0.4310 c         1 MOL      0.361253
    115 O17         4.6200   -2.9580    0.7450 o         1 MOL     -0.345451
    116 C37         3.1580   -2.5320   -2.3320 c3        1 MOL      0.138123
    117 C38         2.0610   -2.7560   -3.4140 c3        1 MOL     -0.314781
    118 O18         2.9200   -1.1110   -1.9740 oh        1 MOL     -0.523904
    119 H53         1.7720   -2.2100   -0.3050 hn        1 MOL      0.014829
    120 H54         3.2330   -4.5320   -1.3740 h1        1 MOL      0.068522
    121 H55         4.0860   -2.6630   -2.9000 h1        1 MOL      0.047699
    122 H56         1.9610   -1.0840   -1.9490 ho        1 MOL      0.339316
    123 H57         2.2700   -3.6680   -3.9700 hc        1 MOL      0.083517
    124 H58         1.0240   -2.8580   -3.0670 hc        1 MOL      0.083517
    125 H59         2.1400   -1.9370   -4.1260 hc        1 MOL      0.083517
    126 N11         5.7390   -3.5940   -1.0880 n         1 MOL     -0.287893
    127 C39         7.0980   -3.3150   -0.5930 c3        1 MOL     -0.125595
    128 C40         7.3580   -1.8640   -0.2690 c         1 MOL      0.305209
    129 O19         7.9960   -1.5600    0.7630 o         1 MOL     -0.447498
    130 C41         8.2200   -3.7740   -1.5270 c3        1 MOL      0.424992
    131 C42         8.4700   -5.2890   -1.7950 c3        1 MOL     -0.403199
    132 O20         7.8810   -3.1250   -2.7290 oh        1 MOL     -0.650924
    133 H60         5.6950   -4.1610   -1.9230 hn        1 MOL      0.265823
    134 H61         7.2690   -3.7950    0.3790 h1        1 MOL      0.108034
    135 H62         9.1620   -3.4680   -1.0740 h1        1 MOL      0.013725
    136 H63         8.6850   -2.9230   -3.2200 ho        1 MOL      0.401858
    137 H64         8.5520   -5.8480   -0.8620 hc        1 MOL      0.110308
    138 H65         7.5760   -5.6270   -2.3240 hc        1 MOL      0.110308
    139 H66         9.3460   -5.3480   -2.4580 hc        1 MOL      0.110308
    140 N12         6.7270   -0.9680   -1.0710 n         1 MOL     -0.236957
    141 C43         6.8880    0.4680   -0.8590 c3        1 MOL     -0.089838
    142 C44         6.1240    0.8810    0.3940 c         1 MOL      0.304792
    143 O21         6.7050    1.6000    1.2370 o         1 MOL     -0.528954
    144 C45         6.5040    1.2800   -2.1540 c3        1 MOL     -0.032186
    145 C46         6.9520    2.7080   -2.1960 c3        1 MOL     -0.065082
    146 C47         6.5090    3.3970   -3.5230 c3        1 MOL      0.075216
    147 C48         6.7340    4.8960   -3.5870 c3        1 MOL     -0.045789
    148 N13         8.2800    5.2830   -3.6640 n4        1 MOL     -0.303307
    149 H67         6.2770   -1.3370   -1.8970 hn        1 MOL      0.243268
    150 H68         7.9210    0.7110   -0.5930 h1        1 MOL      0.123417
    151 H69         5.4270    1.2840   -2.2600 hc        1 MOL      0.031973
    152 H70         6.8890    0.7640   -3.0360 hc        1 MOL      0.031973
    153 H71         8.0310    2.7100   -2.0740 hc        1 MOL      0.023739
    154 H72         6.5010    3.1970   -1.3320 hc        1 MOL      0.023739
    155 H73         5.4640    3.2090   -3.7470 hc        1 MOL      0.040701
    156 H74         7.0500    2.9120   -4.3450 hc        1 MOL      0.040701
    157 H75         6.3780    5.2740   -2.6250 hx        1 MOL      0.099997
    158 H76         6.2040    5.3710   -4.4030 hx        1 MOL      0.099997
    159 H77         8.4220    6.2340   -3.9550 hn        1 MOL      0.261098
    160 H78         8.7610    5.1470   -2.7850 hn        1 MOL      0.261098
    161 H79         8.7960    4.7800   -4.3630 hn        1 MOL      0.261098
    162 N14         4.9910    0.3250    0.6360 n         1 MOL      0.030281
    163 C49         4.1270    0.6620    1.7390 c3        1 MOL     -0.293254
    164 C50         4.6100    0.0770    3.0830 c         1 MOL      0.476827
    165 O22         4.5330    0.7190    4.1310 o         1 MOL     -0.543748
    166 C51         2.6810    0.2420    1.4160 c3        1 MOL      0.254241
    167 C52         2.0740    1.0830    0.2450 c3        1 MOL     -0.033352
    168 C53         0.6710    0.5730   -0.1490 c         1 MOL      0.673807
    169 O23        -0.3090    1.3840   -0.1600 o         1 MOL     -0.693769
    170 O24         0.4740   -0.5160   -0.6070 o         1 MOL     -0.693769
    171 H80         4.6690   -0.3450   -0.0480 hn        1 MOL      0.174184
    172 H81         4.0240    1.7440    1.8110 h1        1 MOL      0.100887
    173 H82         2.1580    0.2810    2.3630 hc        1 MOL      0.010527
    174 H83         2.7130   -0.7970    1.0940 hc        1 MOL      0.010527
    175 H84         2.7330    0.8690   -0.5900 hc        1 MOL     -0.044052
    176 H85         2.1440    2.1390    0.5040 hc        1 MOL     -0.044052
    177 N15         5.1230   -1.1620    2.9730 n         1 MOL      0.006061
    178 C54         5.7460   -1.8960    4.0320 c3        1 MOL     -0.329325
    179 H86         5.8040   -2.9490    3.7570 h1        1 MOL      0.108133
    180 H87         6.7500   -1.5090    4.2010 h1        1 MOL      0.108133
    181 H88         5.1560   -1.7900    4.9430 h1        1 MOL      0.108133
    182 H89         5.0560   -1.5710    2.0550 hn        1 MOL      0.120801
    183 Ca1        -1.9370   -0.2150   -1.4080 Ca        1 MOL      1.738624
    184 O25        -0.7010    0.3260   -3.6780 oh        1 MOL     -0.781509
    185 H90        -0.6350   -0.3240   -4.3780 ho        1 MOL      0.379038
    186 H91        -0.5540    1.1690   -4.1090 ho        1 MOL      0.379038
    187 O26        -1.2840   -2.5930   -2.5270 oh        1 MOL     -0.781509
    188 H92        -1.6080   -3.4920   -2.5740 ho        1 MOL      0.379038
    189 H93        -1.0730   -2.3760   -3.4430 ho        1 MOL      0.379038
@<TRIPOS>BOND
     1    1    2 1   
     2    1    4 1   
     3    1    5 1   
     4    1    6 1   
     5    2    3 2   
     6    2    7 1   
     7    7    8 1   
     8    7   15 1   
     9    8    9 1   
    10    8   11 1   
    11    8   16 1   
    12    9   10 2   
    13    9   19 1   
    14   11   12 1   
    15   11   17 1   
    16   11   18 1   
    17   12   13 1   
    18   12   14 1   
    19   19   20 1   
    20   19   28 1   
    21   20   21 1   
    22   20   23 1   
    23   20   29 1   
    24   21   22 2   
    25   21   41 1   
    26   23   24 1   
    27   23   30 1   
    28   23   31 1   
    29   24   25 1   
    30   24   32 1   
    31   24   33 1   
    32   25   26 1   
    33   25   34 1   
    34   25   35 1   
    35   26   27 1   
    36   26   36 1   
    37   26   37 1   
    38   27   38 1   
    39   27   39 1   
    40   27   40 1   
    41   41   42 1   
    42   41   49 1   
    43   42   43 1   
    44   42   45 1   
    45   42   50 1   
    46   43   44 2   
    47   43   53 1   
    48   45   46 1   
    49   45   51 1   
    50   45   52 1   
    51   46   47 1   
    52   46   48 1   
    53   53   54 1   
    54   53   57 1   
    55   54   55 1   
    56   54   58 1   
    57   54   59 1   
    58   55   56 2   
    59   55   60 1   
    60   60   61 1   
    61   60   68 1   
    62   61   62 1   
    63   61   64 1   
    64   61   69 1   
    65   62   63 2   
    66   62   72 1   
    67   64   65 1   
    68   64   70 1   
    69   64   71 1   
    70   65   66 1   
    71   65   67 1   
    72   72   73 1   
    73   72   76 1   
    74   73   74 1   
    75   73   77 1   
    76   73   78 1   
    77   74   75 2   
    78   74   79 1   
    79   79   80 1   
    80   79   86 1   
    81   80   81 1   
    82   80   83 1   
    83   80   87 1   
    84   81   82 2   
    85   81   93 1   
    86   83   84 1   
    87   83   85 1   
    88   83   88 1   
    89   84   90 1   
    90   84   91 1   
    91   84   92 1   
    92   85   89 1   
    93   93   94 1   
    94   93  101 1   
    95   94   95 1   
    96   94   97 1   
    97   94  102 1   
    98   95   96 2   
    99   95  112 1   
   100   97   98 1   
   101   97   99 1   
   102   97  103 1   
   103   98  100 1   
   104   98  104 1   
   105   98  105 1   
   106   99  106 1   
   107   99  107 1   
   108   99  108 1   
   109  100  109 1   
   110  100  110 1   
   111  100  111 1   
   112  112  113 1   
   113  112  119 1   
   114  113  114 1   
   115  113  116 1   
   116  113  120 1   
   117  114  115 2   
   118  114  126 1   
   119  116  117 1   
   120  116  118 1   
   121  116  121 1   
   122  117  123 1   
   123  117  124 1   
   124  117  125 1   
   125  118  122 1   
   126  126  127 1   
   127  126  133 1   
   128  127  128 1   
   129  127  130 1   
   130  127  134 1   
   131  128  129 2   
   132  128  140 1   
   133  130  131 1   
   134  130  132 1   
   135  130  135 1   
   136  131  137 1   
   137  131  138 1   
   138  131  139 1   
   139  132  136 1   
   140  140  141 1   
   141  140  149 1   
   142  141  142 1   
   143  141  144 1   
   144  141  150 1   
   145  142  143 2   
   146  142  162 1   
   147  144  145 1   
   148  144  151 1   
   149  144  152 1   
   150  145  146 1   
   151  145  153 1   
   152  145  154 1   
   153  146  147 1   
   154  146  155 1   
   155  146  156 1   
   156  147  148 1   
   157  147  157 1   
   158  147  158 1   
   159  148  159 1   
   160  148  160 1   
   161  148  161 1   
   162  162  163 1   
   163  162  171 1   
   164  163  164 1   
   165  163  166 1   
   166  163  172 1   
   167  164  165 2   
   168  164  177 1   
   169  166  167 1   
   170  166  173 1   
   171  166  174 1   
   172  167  168 1   
   173  167  175 1   
   174  167  176 1   
   175  168  169 1   
   176  168  170 1   
   177  177  178 1   
   178  177  182 1   
   179  178  179 1   
   180  178  180 1   
   181  178  181 1   
   182  184  185 1   
   183  184  186 1   
   184  187  188 1   
   185  187  189 1   
@<TRIPOS>SUBSTRUCTURE
     1 MOL         1 TEMP              0 ****  ****    0 ROOT
