@<TRIPOS>MOLECULE
MOL
  182   178     1     0     0
SMALL
resp


@<TRIPOS>ATOM
      1 C1          1.9400    2.3410    6.0350 c3        1 MOL     -0.258456
      2 C2          1.4690    2.2000    4.5680 c         1 MOL      0.752437
      3 O1          2.2420    2.0940    3.6140 o         1 MOL     -0.633667
      4 H1          1.4660    3.2130    6.4860 hc        1 MOL      0.061309
      5 H2          1.6630    1.4470    6.5940 hc        1 MOL      0.061309
      6 H3          3.0230    2.4640    6.0590 hc        1 MOL      0.061309
      7 N1          0.1520    2.2300    4.4380 n         1 MOL     -0.571142
      8 C3         -0.4670    2.0840    3.0650 c3        1 MOL     -0.001571
      9 C4         -0.3810    3.4500    2.4310 c         1 MOL      0.609831
     10 O2         -0.8800    4.4830    2.9690 o         1 MOL     -0.575071
     11 C5         -1.8830    1.5910    3.2820 c3        1 MOL     -0.370883
     12 C6         -2.6860    1.3540    1.9970 c         1 MOL      0.862211
     13 O3         -3.8720    0.9870    2.1260 o         1 MOL     -0.722429
     14 O4         -2.1680    1.5050    0.8390 o         1 MOL     -0.722429
     15 H4         -0.4130    2.2880    5.2760 hn        1 MOL      0.334180
     16 H5          0.0930    1.3360    2.5070 h1        1 MOL     -0.007876
     17 H6         -2.3890    2.4010    3.8080 hc        1 MOL      0.113712
     18 H7         -1.7320    0.7330    3.9330 hc        1 MOL      0.113712
     19 N2          0.3420    3.5040    1.3010 n         1 MOL     -0.237400
     20 C7          0.7740    4.7370    0.7020 c3        1 MOL     -0.181901
     21 C8         -0.3550    5.4070   -0.0110 c         1 MOL      0.539921
     22 O5         -0.2400    6.6400   -0.1000 o         1 MOL     -0.583912
     23 C9          1.9570    4.4250   -0.1990 c3        1 MOL      0.120375
     24 C10         2.7380    5.6900   -0.5510 c3        1 MOL     -0.120599
     25 C11         3.9970    5.2940   -1.3570 c3        1 MOL      0.111024
     26 C12         4.4720    6.4990   -2.0860 c3        1 MOL     -0.036606
     27 N3          5.6380    6.1640   -3.0040 n4        1 MOL     -0.303495
     28 H8          0.5670    2.6100    0.8860 hn        1 MOL      0.221930
     29 H9          1.1370    5.3530    1.5220 h1        1 MOL      0.136968
     30 H10         1.4850    3.9550   -1.0580 hc        1 MOL      0.022524
     31 H11         2.6000    3.6890    0.2800 hc        1 MOL      0.022524
     32 H12         2.9580    6.3170    0.3150 hc        1 MOL      0.042198
     33 H13         2.1580    6.3330   -1.2210 hc        1 MOL      0.042198
     34 H14         3.6630    4.5950   -2.1190 hc        1 MOL      0.010906
     35 H15         4.7690    4.7910   -0.7730 hc        1 MOL      0.010906
     36 H16         4.9200    7.1490   -1.3370 hx        1 MOL      0.103050
     37 H17         3.6780    7.0900   -2.5370 hx        1 MOL      0.103050
     38 H18         5.3310    5.6130   -3.7960 hn        1 MOL      0.305866
     39 H19         5.9840    6.9820   -3.4910 hn        1 MOL      0.305866
     40 H20         6.3210    5.5560   -2.5830 hn        1 MOL      0.305866
     41 N4         -1.3990    4.7430   -0.4670 n         1 MOL     -0.305905
     42 C13        -2.5910    5.3890   -1.1090 c3        1 MOL      0.153291
     43 C14        -3.9480    5.2320   -0.4170 c         1 MOL      0.315293
     44 O6         -4.9920    5.8010   -0.8060 o         1 MOL     -0.515241
     45 C15        -2.6480    4.8740   -2.5760 c3        1 MOL     -0.301128
     46 C16        -2.9290    3.4010   -2.6750 c         1 MOL      0.838950
     47 O7         -3.3130    2.8990   -3.7600 o         1 MOL     -0.740189
     48 O8         -2.8940    2.6320   -1.6790 o         1 MOL     -0.740189
     49 H21        -1.4680    3.7390   -0.3190 hn        1 MOL      0.126568
     50 H22        -2.4390    6.4560   -1.2480 h1        1 MOL      0.078702
     51 H23        -1.7100    5.1790   -3.0470 hc        1 MOL      0.077605
     52 H24        -3.4770    5.3720   -3.0790 hc        1 MOL      0.077605
     53 N5         -4.0390    4.3540    0.5520 n         1 MOL     -0.075473
     54 C17        -5.2700    3.9280    1.2600 c3        1 MOL     -0.252087
     55 C18        -6.1590    2.8680    0.6490 c         1 MOL      0.622514
     56 O9         -7.3870    2.8870    0.8330 o         1 MOL     -0.587497
     57 H25        -3.1470    3.9420    0.7720 hn        1 MOL      0.132778
     58 H26        -5.8950    4.8100    1.4180 h1        1 MOL      0.119333
     59 H27        -4.9620    3.4610    2.2010 h1        1 MOL      0.119333
     60 N6         -5.6460    1.9640   -0.1990 n         1 MOL     -0.272149
     61 C19        -6.3830    0.8630   -0.9010 c3        1 MOL     -0.104470
     62 C20        -6.6240   -0.4230   -0.0650 c         1 MOL      0.287760
     63 O10        -7.4620   -1.2910   -0.3490 o         1 MOL     -0.475762
     64 C21        -5.7490    0.6770   -2.2540 c3        1 MOL     -0.054813
     65 C22        -4.8260   -0.4520   -2.3730 c         1 MOL      0.464059
     66 N7         -5.0610   -1.3700   -3.3520 n         1 MOL     -0.729778
     67 O11        -3.8990   -0.6290   -1.6160 o         1 MOL     -0.518488
     68 H28        -4.6510    2.0190   -0.3750 hn        1 MOL      0.265290
     69 H29        -7.3830    1.2440   -1.1190 h1        1 MOL      0.140419
     70 H30        -5.1590    1.5060   -2.6590 hc        1 MOL      0.066558
     71 H31        -6.5880    0.5470   -2.9460 hc        1 MOL      0.066558
     72 H32        -5.9180   -1.2300   -3.8720 hn        1 MOL      0.359442
     73 H33        -4.4570   -2.1800   -3.4040 hn        1 MOL      0.359442
     74 N8         -5.9690   -0.5540    1.0730 n         1 MOL      0.018323
     75 C23        -6.0920   -1.5450    2.1250 c3        1 MOL     -0.268241
     76 C24        -5.0510   -2.6720    1.8710 c         1 MOL      0.491917
     77 O12        -5.2150   -3.7470    2.5590 o         1 MOL     -0.542224
     78 H34        -5.2340    0.1220    1.2420 hn        1 MOL      0.132696
     79 H35        -7.1430   -1.8110    2.1240 h1        1 MOL      0.134444
     80 H36        -5.7230   -1.0390    3.0150 h1        1 MOL      0.134444
     81 N9         -4.0500   -2.4760    0.9490 n         1 MOL     -0.053662
     82 C25        -2.8710   -3.4270    0.7870 c3        1 MOL      0.345168
     83 C26        -1.5660   -2.6870    0.8100 c         1 MOL      0.278678
     84 O13        -1.4620   -1.6220    0.1950 o         1 MOL     -0.565667
     85 C27        -3.0840   -4.2670   -0.4710 c3        1 MOL      0.152416
     86 C28        -4.3570   -5.0370   -0.5210 ca        1 MOL     -0.124661
     87 C29        -5.5590   -4.4300   -0.9140 ca        1 MOL     -0.106900
     88 C30        -4.3570   -6.3860   -0.3280 ca        1 MOL     -0.106900
     89 C31        -6.7290   -5.1860   -1.0270 ca        1 MOL     -0.241130
     90 C32        -5.5270   -7.1510   -0.4360 ca        1 MOL     -0.241130
     91 C33        -6.7510   -6.5670   -0.7580 ca        1 MOL      0.356911
     92 O14        -7.8920   -7.3060   -0.9520 oh        1 MOL     -0.466160
     93 H37        -3.9150   -1.5490    0.5620 hn        1 MOL     -0.015264
     94 H38        -2.8270   -4.0670    1.6710 h1        1 MOL     -0.086081
     95 H39        -2.1900   -4.9030   -0.4990 hc        1 MOL     -0.044530
     96 H40        -3.0190   -3.6160   -1.3330 hc        1 MOL     -0.044530
     97 H41        -5.5220   -3.3790   -1.1560 ha        1 MOL      0.097465
     98 H42        -3.4200   -6.8750   -0.1320 ha        1 MOL      0.097465
     99 H43        -7.6160   -4.7800   -1.4910 ha        1 MOL      0.124254
    100 H44        -5.5400   -8.2260   -0.3200 ha        1 MOL      0.124254
    101 H45        -7.6820   -8.2390   -1.0800 ho        1 MOL      0.333915
    102 N10        -0.5310   -3.3130    1.3120 n         1 MOL     -0.326447
    103 C34         0.8070   -2.7370    1.4340 c3        1 MOL     -0.017811
    104 C35         1.7360   -3.6770    0.5870 c         1 MOL      0.484964
    105 O15         1.7580   -4.9140    0.7500 o         1 MOL     -0.576452
    106 C36         1.2380   -2.6700    2.9130 c3        1 MOL     -0.078688
    107 C37         0.3650   -1.5520    3.5780 c3        1 MOL      0.101328
    108 C38         2.7940   -2.3980    3.0210 c3        1 MOL      0.011196
    109 C39         0.3640   -1.6240    5.0630 c3        1 MOL     -0.335456
    110 H46        -0.6910   -4.2250    1.7210 hn        1 MOL      0.305753
    111 H47         0.9370   -1.7210    1.0520 h1        1 MOL      0.109424
    112 H48         1.0540   -3.6060    3.4300 hc        1 MOL      0.052494
    113 H49        -0.6470   -1.5690    3.1940 hc        1 MOL      0.036292
    114 H50         0.8580   -0.6520    3.2040 hc        1 MOL      0.036292
    115 H51         3.2070   -1.5460    2.4800 hc        1 MOL     -0.008334
    116 H52         3.0370   -2.2440    4.0800 hc        1 MOL     -0.008334
    117 H53         3.4720   -3.1910    2.6920 hc        1 MOL     -0.008334
    118 H54         1.4090   -1.7250    5.3430 hc        1 MOL      0.085107
    119 H55        -0.0390   -0.7790    5.6110 hc        1 MOL      0.085107
    120 H56        -0.1810   -2.5220    5.3280 hc        1 MOL      0.085107
    121 N11         2.5130   -3.1690   -0.3640 n         1 MOL     -0.228609
    122 C40         3.5380   -3.8790   -1.1670 c3        1 MOL     -0.018999
    123 C41         4.8580   -3.6750   -0.5030 c         1 MOL      0.462694
    124 O16         5.0600   -2.7230    0.2180 o         1 MOL     -0.354425
    125 C42         3.5160   -3.5120   -2.6420 c3        1 MOL     -0.171693
    126 O17         4.2030   -2.3640   -2.9030 oh        1 MOL     -0.402178
    127 H57         2.2460   -2.2430   -0.6460 hn        1 MOL      0.271035
    128 H58         3.3450   -4.9460   -1.0290 h1        1 MOL      0.088668
    129 H59         2.4670   -3.4810   -2.9370 h1        1 MOL      0.107042
    130 H60         3.8730   -4.3590   -3.2130 h1        1 MOL      0.107042
    131 H61         4.1250   -2.1490   -3.8320 ho        1 MOL      0.384695
    132 N12         5.8850   -4.4930   -0.7080 n         1 MOL     -0.445570
    133 C43         7.2680   -4.2410   -0.2410 c3        1 MOL      0.096170
    134 C44         7.7930   -2.8920   -0.6600 c         1 MOL      0.528200
    135 O18         8.6310   -2.3530    0.1220 o         1 MOL     -0.535914
    136 C45         8.2680   -5.4090   -0.7390 c3        1 MOL     -0.294506
    137 H62         5.7410   -5.2980   -1.2960 hn        1 MOL      0.279480
    138 H63         7.1770   -4.2120    0.8480 h1        1 MOL      0.094230
    139 H64         7.9190   -6.3870   -0.4040 hc        1 MOL      0.099381
    140 H65         8.2480   -5.2350   -1.8180 hc        1 MOL      0.099381
    141 H66         9.2400   -5.1300   -0.3420 hc        1 MOL      0.099381
    142 N13         7.3130   -2.2740   -1.7610 n         1 MOL     -0.412326
    143 C46         7.7060   -0.9020   -2.2430 c3        1 MOL      0.169372
    144 C47         7.2130    0.1540   -1.2540 c         1 MOL      0.257648
    145 O19         7.8950    1.1770   -0.8900 o         1 MOL     -0.487505
    146 C48         7.1800   -0.8180   -3.6450 c3        1 MOL     -0.308507
    147 H67         6.6190   -2.7150   -2.3530 hn        1 MOL      0.228337
    148 H68         8.7900   -0.8350   -2.2320 h1        1 MOL      0.080548
    149 H69         6.1130   -1.0340   -3.6620 hc        1 MOL      0.082513
    150 H70         7.3780    0.2040   -3.9400 hc        1 MOL      0.082513
    151 H71         7.6500   -1.5060   -4.3520 hc        1 MOL      0.082513
    152 N14         5.9760   -0.0840   -0.7890 n         1 MOL     -0.073207
    153 C49         5.3190    0.7230    0.2510 c3        1 MOL     -0.148373
    154 C50         6.0350    0.5500    1.5830 c         1 MOL      0.415813
    155 O20         6.2520    1.6050    2.2440 o         1 MOL     -0.522201
    156 C51         3.8350    0.4400    0.3120 c3        1 MOL      0.208215
    157 C52         3.0440    0.8250   -0.9390 c3        1 MOL      0.219213
    158 C53         1.5850    0.4610   -0.7830 c         1 MOL      0.713666
    159 O21         1.1180   -0.6090   -1.2260 o         1 MOL     -0.761984
    160 O22         0.7840    1.2830   -0.3620 o         1 MOL     -0.761984
    161 H72         5.5600   -0.9320   -1.1470 hn        1 MOL      0.131872
    162 H73         5.4880    1.7720   -0.0040 h1        1 MOL      0.102787
    163 H74         3.3680    0.8490    1.2130 hc        1 MOL     -0.003695
    164 H75         3.6400   -0.6370    0.3970 hc        1 MOL     -0.003695
    165 H76         3.4360    0.1010   -1.6490 hc        1 MOL     -0.188326
    166 H77         3.2730    1.8800   -1.0930 hc        1 MOL     -0.188326
    167 N15         6.6240   -0.6340    1.9270 n         1 MOL     -0.022546
    168 C54         7.5010   -0.7650    3.1480 c3        1 MOL     -0.425864
    169 H78         7.0210   -0.2730    3.9940 h1        1 MOL      0.153340
    170 H79         7.6470   -1.8200    3.3780 h1        1 MOL      0.153340
    171 H80         8.4660   -0.2970    2.9560 h1        1 MOL      0.153340
    172 H81         6.3700   -1.4910    1.4540 hn        1 MOL      0.093324
    173 Ca1        -1.3820    0.3300   -1.4010 Ca        1 MOL      1.812681
    174 O23        -1.0430   -1.8880   -2.7910 oh        1 MOL     -0.823268
    175 H82        -1.4760   -1.9930   -3.6420 ho        1 MOL      0.396208
    176 H83        -0.6900   -2.7550   -2.5970 ho        1 MOL      0.396208
    177 O24         0.1630    2.1090   -3.4410 oh        1 MOL     -0.823268
    178 H84        -0.2100    1.9600   -4.3180 ho        1 MOL      0.396208
    179 H85         0.9050    2.6910   -3.5940 ho        1 MOL      0.396208
    180 O25        -2.1790    0.4520   -4.2250 oh        1 MOL     -0.823268
    181 H86        -2.6400   -0.0240   -4.9120 ho        1 MOL      0.396208
    182 H87        -2.7260    1.2130   -4.0470 ho        1 MOL      0.396208
@<TRIPOS>BOND
     1    1    2 1   
     2    1    4 1   
     3    1    5 1   
     4    1    6 1   
     5    2    3 2   
     6    2    7 1   
     7    7    8 1   
     8    7   15 1   
     9    8    9 1   
    10    8   11 1   
    11    8   16 1   
    12    9   10 2   
    13    9   19 1   
    14   11   12 1   
    15   11   17 1   
    16   11   18 1   
    17   12   13 1   
    18   12   14 1   
    19   19   20 1   
    20   19   28 1   
    21   20   21 1   
    22   20   23 1   
    23   20   29 1   
    24   21   22 2   
    25   21   41 1   
    26   23   24 1   
    27   23   30 1   
    28   23   31 1   
    29   24   25 1   
    30   24   32 1   
    31   24   33 1   
    32   25   26 1   
    33   25   34 1   
    34   25   35 1   
    35   26   27 1   
    36   26   36 1   
    37   26   37 1   
    38   27   38 1   
    39   27   39 1   
    40   27   40 1   
    41   41   42 1   
    42   41   49 1   
    43   42   43 1   
    44   42   45 1   
    45   42   50 1   
    46   43   44 2   
    47   43   53 1   
    48   45   46 1   
    49   45   51 1   
    50   45   52 1   
    51   46   47 1   
    52   46   48 1   
    53   53   54 1   
    54   53   57 1   
    55   54   55 1   
    56   54   58 1   
    57   54   59 1   
    58   55   56 2   
    59   55   60 1   
    60   60   61 1   
    61   60   68 1   
    62   61   62 1   
    63   61   64 1   
    64   61   69 1   
    65   62   63 2   
    66   62   74 1   
    67   64   65 1   
    68   64   70 1   
    69   64   71 1   
    70   65   66 1   
    71   65   67 2   
    72   66   72 1   
    73   66   73 1   
    74   74   75 1   
    75   74   78 1   
    76   75   76 1   
    77   75   79 1   
    78   75   80 1   
    79   76   77 2   
    80   76   81 1   
    81   81   82 1   
    82   81   93 1   
    83   82   83 1   
    84   82   85 1   
    85   82   94 1   
    86   83   84 2   
    87   83  102 1   
    88   85   86 1   
    89   85   95 1   
    90   85   96 1   
    91   86   87 ar  
    92   86   88 ar  
    93   87   89 ar  
    94   87   97 1   
    95   88   90 ar  
    96   88   98 1   
    97   89   91 ar  
    98   89   99 1   
    99   90   91 ar  
   100   90  100 1   
   101   91   92 1   
   102   92  101 1   
   103  102  103 1   
   104  102  110 1   
   105  103  104 1   
   106  103  106 1   
   107  103  111 1   
   108  104  105 2   
   109  104  121 1   
   110  106  107 1   
   111  106  108 1   
   112  106  112 1   
   113  107  109 1   
   114  107  113 1   
   115  107  114 1   
   116  108  115 1   
   117  108  116 1   
   118  108  117 1   
   119  109  118 1   
   120  109  119 1   
   121  109  120 1   
   122  121  122 1   
   123  121  127 1   
   124  122  123 1   
   125  122  125 1   
   126  122  128 1   
   127  123  124 2   
   128  123  132 1   
   129  125  126 1   
   130  125  129 1   
   131  125  130 1   
   132  126  131 1   
   133  132  133 1   
   134  132  137 1   
   135  133  134 1   
   136  133  136 1   
   137  133  138 1   
   138  134  135 2   
   139  134  142 1   
   140  136  139 1   
   141  136  140 1   
   142  136  141 1   
   143  142  143 1   
   144  142  147 1   
   145  143  144 1   
   146  143  146 1   
   147  143  148 1   
   148  144  145 2   
   149  144  152 1   
   150  146  149 1   
   151  146  150 1   
   152  146  151 1   
   153  152  153 1   
   154  152  161 1   
   155  153  154 1   
   156  153  156 1   
   157  153  162 1   
   158  154  155 2   
   159  154  167 1   
   160  156  157 1   
   161  156  163 1   
   162  156  164 1   
   163  157  158 1   
   164  157  165 1   
   165  157  166 1   
   166  158  159 1   
   167  158  160 1   
   168  167  168 1   
   169  167  172 1   
   170  168  169 1   
   171  168  170 1   
   172  168  171 1   
   173  174  175 1   
   174  174  176 1   
   175  177  178 1   
   176  177  179 1   
   177  180  181 1   
   178  180  182 1   
@<TRIPOS>SUBSTRUCTURE
     1 MOL         1 TEMP              0 ****  ****    0 ROOT
