@<TRIPOS>MOLECULE
MOL
  189   185     1     0     0
SMALL
resp


@<TRIPOS>ATOM
      1 C1          0.0170    2.4120    5.3630 c3        1 MOL     -0.168258
      2 C2         -0.5410    2.3740    3.9590 c         1 MOL      0.849769
      3 O1          0.1980    2.6780    3.0380 o         1 MOL     -0.639663
      4 H1          1.1050    2.4610    5.3190 hc        1 MOL      0.038616
      5 H2         -0.3650    3.2910    5.8830 hc        1 MOL      0.038616
      6 H3         -0.2840    1.5120    5.8990 hc        1 MOL      0.038616
      7 N1         -1.7370    1.8870    3.7700 n         1 MOL     -0.918324
      8 C3         -2.3110    1.6130    2.4250 c3        1 MOL      0.755755
      9 C4         -2.8990    2.9040    1.8850 c         1 MOL      0.158692
     10 O2         -4.0100    3.2910    2.3100 o         1 MOL     -0.522256
     11 C5         -3.3490    0.5210    2.4220 c3        1 MOL     -0.471282
     12 C6         -4.0070    0.1890    1.0780 c         1 MOL      0.930947
     13 O3         -5.1270   -0.3640    1.0330 o         1 MOL     -0.682014
     14 O4         -3.4130    0.4960    0.0320 o         1 MOL     -0.682014
     15 H4         -2.3300    1.5060    4.5000 hn        1 MOL      0.369864
     16 H5         -1.5470    1.1860    1.7780 h1        1 MOL     -0.090419
     17 H6         -4.2000    0.7750    3.0700 hc        1 MOL      0.068578
     18 H7         -2.8400   -0.3690    2.7770 hc        1 MOL      0.068578
     19 N2         -2.0850    3.4980    1.0110 n         1 MOL      0.047783
     20 C7         -2.1920    4.8820    0.5290 c3        1 MOL     -0.234624
     21 C8         -2.6480    5.0630   -0.9480 c         1 MOL      0.481630
     22 O5         -2.9550    6.1940   -1.3930 o         1 MOL     -0.553097
     23 C9         -0.8840    5.5550    0.6500 c3        1 MOL     -0.002044
     24 C10        -0.4090    5.8910    2.0550 c3        1 MOL      0.330696
     25 C11        -1.3550    6.9280    2.6980 c3        1 MOL     -0.439376
     26 C12        -2.3890    6.2340    3.6520 c3        1 MOL      0.383899
     27 N3         -3.3870    7.1410    4.2610 n4        1 MOL     -0.506013
     28 H8         -1.1930    3.0440    0.8950 hn        1 MOL      0.214006
     29 H9         -2.9590    5.3610    1.1300 h1        1 MOL      0.111431
     30 H10        -0.8960    6.4260   -0.0080 hc        1 MOL      0.031176
     31 H11        -0.0860    4.8880    0.3170 hc        1 MOL      0.031176
     32 H12         0.6270    6.2180    1.9400 hc        1 MOL     -0.051991
     33 H13        -0.4100    5.0860    2.7870 hc        1 MOL     -0.051991
     34 H14        -1.7760    7.5500    1.9120 hc        1 MOL      0.094596
     35 H15        -0.7530    7.6010    3.3140 hc        1 MOL      0.094596
     36 H16        -1.9190    5.8070    4.5390 hx        1 MOL     -0.017766
     37 H17        -2.8610    5.3750    3.1650 hx        1 MOL     -0.017766
     38 H18        -2.8880    7.8770    4.7470 hn        1 MOL      0.358550
     39 H19        -3.9650    7.5500    3.5530 hn        1 MOL      0.358550
     40 H20        -3.8890    6.5750    4.9400 hn        1 MOL      0.358550
     41 N4         -2.7140    3.9620   -1.6720 n         1 MOL     -0.239737
     42 C13        -3.4860    3.8860   -2.9250 c3        1 MOL      0.070014
     43 C14        -4.8140    3.3240   -2.7380 c         1 MOL      0.439966
     44 O6         -5.7810    3.8220   -3.3060 o         1 MOL     -0.548527
     45 C15        -2.6580    3.3450   -4.0880 c3        1 MOL     -0.266229
     46 C16        -2.4120    1.8660   -3.9950 c         1 MOL      0.756423
     47 O7         -2.6670    1.1510   -3.0000 o         1 MOL     -0.672028
     48 O8         -1.9600    1.3370   -5.0280 o         1 MOL     -0.672028
     49 H21        -2.4230    3.0560   -1.3370 hn        1 MOL      0.099239
     50 H22        -3.6230    4.9230   -3.2380 h1        1 MOL      0.073403
     51 H23        -1.8010    4.0000   -4.2850 hc        1 MOL      0.082777
     52 H24        -3.1910    3.5200   -5.0220 hc        1 MOL      0.082777
     53 N5         -4.9760    2.3710   -1.7880 n         1 MOL     -0.057486
     54 C17        -6.2620    1.8910   -1.2090 c3        1 MOL     -0.146508
     55 C18        -6.9240    0.5880   -1.7010 c         1 MOL      0.720413
     56 O9         -7.9010    0.6700   -2.4010 o         1 MOL     -0.576284
     57 H25        -4.1380    1.9440   -1.4320 hn        1 MOL      0.041016
     58 H26        -7.0130    2.6780   -1.2810 h1        1 MOL      0.048832
     59 H27        -6.1050    1.6440   -0.1580 h1        1 MOL      0.048832
     60 N6         -6.3110   -0.5550   -1.3340 n         1 MOL     -0.586404
     61 C19        -6.6250   -1.8930   -1.8890 c3        1 MOL      0.102436
     62 C20        -6.7230   -3.0330   -0.8720 c         1 MOL      0.435223
     63 O10        -6.9490   -4.1570   -1.2530 o         1 MOL     -0.533255
     64 C21        -5.7750   -2.2410   -3.1040 c3        1 MOL     -0.193438
     65 C22        -4.3690   -2.3000   -2.7310 c         1 MOL      0.767088
     66 O11        -3.9530   -2.5950   -1.5790 o         1 MOL     -0.741109
     67 O12        -3.5130   -1.8750   -3.5240 o         1 MOL     -0.741109
     68 H28        -5.4780   -0.4980   -0.7720 hn        1 MOL      0.265249
     69 H29        -7.6200   -1.7840   -2.3350 h1        1 MOL      0.073559
     70 H30        -5.9280   -1.5040   -3.8960 hc        1 MOL      0.078207
     71 H31        -6.1320   -3.1990   -3.4970 hc        1 MOL      0.078207
     72 N7         -6.4490   -2.8130    0.4010 n         1 MOL     -0.328962
     73 C23        -6.3490   -3.8480    1.5500 c3        1 MOL     -0.154757
     74 C24        -5.0080   -4.6090    1.5820 c         1 MOL      0.530435
     75 O13        -4.8780   -5.6330    2.2370 o         1 MOL     -0.563528
     76 H32        -6.1280   -1.8970    0.6620 hn        1 MOL      0.249873
     77 H33        -7.0870   -4.6240    1.3950 h1        1 MOL      0.107929
     78 H34        -6.5530   -3.4480    2.5410 h1        1 MOL      0.107929
     79 N8         -4.0740   -4.0200    0.8070 n         1 MOL     -0.215184
     80 C25        -2.7000   -4.5190    0.8870 c3        1 MOL     -0.265239
     81 C26        -1.6220   -3.4400    1.0610 c         1 MOL      0.728206
     82 O14        -1.7470   -2.3230    0.5140 o         1 MOL     -0.712084
     83 C27        -2.4170   -5.3730   -0.3430 c3        1 MOL      0.578659
     84 C28        -2.9970   -6.8050   -0.4640 c3        1 MOL     -0.484131
     85 O15        -2.6420   -4.8750   -1.6560 oh        1 MOL     -0.673181
     86 H35        -4.2190   -3.2010    0.2400 hn        1 MOL      0.169199
     87 H36        -2.5460   -5.2360    1.6980 h1        1 MOL      0.095521
     88 H37        -1.3570   -5.5650   -0.2150 h1        1 MOL     -0.072919
     89 H38        -3.2880   -4.1620   -1.6490 ho        1 MOL      0.446270
     90 H39        -2.5600   -7.3080   -1.3260 hc        1 MOL      0.121869
     91 H40        -2.7820   -7.3530    0.4540 hc        1 MOL      0.121869
     92 H41        -4.0620   -6.7690   -0.7260 hc        1 MOL      0.121869
     93 N9         -0.5500   -3.8550    1.7570 n         1 MOL     -0.484486
     94 C29         0.6520   -3.0130    2.1660 c3        1 MOL      0.046225
     95 C30         1.8190   -3.4070    1.3190 c         1 MOL      0.345722
     96 O16         2.2120   -4.5970    1.3020 o         1 MOL     -0.537337
     97 C31         0.9370   -3.0890    3.6990 c3        1 MOL      0.177057
     98 C32        -0.1810   -2.5420    4.6090 c3        1 MOL      0.067571
     99 C33         2.2750   -2.3930    4.0570 c3        1 MOL     -0.192378
    100 C34        -0.0100   -2.8650    6.0900 c3        1 MOL     -0.293977
    101 H42        -0.5860   -4.7750    2.1750 hn        1 MOL      0.282446
    102 H43         0.4650   -1.9710    1.9110 h1        1 MOL      0.102396
    103 H44         1.1620   -4.1000    4.0350 hc        1 MOL     -0.018228
    104 H45        -1.0690   -3.0000    4.1720 hc        1 MOL     -0.006171
    105 H46        -0.3340   -1.4900    4.3630 hc        1 MOL     -0.006171
    106 H47         2.1010   -1.3240    3.9600 hc        1 MOL      0.032586
    107 H48         2.5340   -2.5240    5.1060 hc        1 MOL      0.032586
    108 H49         3.0760   -2.7680    3.4150 hc        1 MOL      0.032586
    109 H50        -0.9590   -2.9470    6.6150 hc        1 MOL      0.077563
    110 H51         0.4970   -3.8180    6.2520 hc        1 MOL      0.077563
    111 H52         0.6080   -2.1350    6.6110 hc        1 MOL      0.077563
    112 N10         2.4110   -2.4710    0.5800 n         1 MOL     -0.147386
    113 C35         3.6320   -2.6410   -0.2520 c3        1 MOL      0.123233
    114 C36         4.9140   -2.2010    0.3750 c         1 MOL      0.290214
    115 O17         4.8920   -1.4910    1.3700 o         1 MOL     -0.307476
    116 C37         3.5010   -1.9010   -1.6230 c3        1 MOL      0.048547
    117 C38         2.2680   -2.3260   -2.3200 c3        1 MOL     -0.419850
    118 O18         3.3270   -0.5070   -1.4770 oh        1 MOL     -0.453622
    119 H53         1.9860   -1.5650    0.5290 hn        1 MOL      0.337629
    120 H54         3.8300   -3.6970   -0.4210 h1        1 MOL      0.033769
    121 H55         4.4060   -2.1930   -2.1690 h1        1 MOL      0.027753
    122 H56         2.7980   -0.1660   -2.1960 ho        1 MOL      0.426590
    123 H57         2.1450   -3.4080   -2.4030 hc        1 MOL      0.110532
    124 H58         1.4410   -1.7240   -1.9260 hc        1 MOL      0.110532
    125 H59         2.3220   -2.0300   -3.3660 hc        1 MOL      0.110532
    126 N11         6.0350   -2.6120   -0.2430 n         1 MOL     -0.153802
    127 C39         7.3980   -2.3320    0.1810 c3        1 MOL     -0.283445
    128 C40         7.6290   -0.7810    0.2420 c         1 MOL      0.508430
    129 O19         8.2850   -0.2820    1.1400 o         1 MOL     -0.475266
    130 C41         8.3760   -3.0660   -0.7110 c3        1 MOL      0.305794
    131 C42         8.5520   -4.5540   -0.4090 c3        1 MOL     -0.469833
    132 O20         8.0650   -2.8980   -2.0720 oh        1 MOL     -0.641054
    133 H60         5.9680   -3.2100   -1.0550 hn        1 MOL      0.253077
    134 H61         7.5550   -2.6830    1.2000 h1        1 MOL      0.157598
    135 H62         9.3340   -2.5980   -0.5170 h1        1 MOL      0.045810
    136 H63         8.8520   -3.2260   -2.5240 ho        1 MOL      0.420584
    137 H64         7.6240   -5.0310   -0.7400 hc        1 MOL      0.137698
    138 H65         9.3830   -4.8760   -1.0260 hc        1 MOL      0.137698
    139 H66         8.5430   -4.7910    0.6560 hc        1 MOL      0.137698
    140 N12         7.0920   -0.0400   -0.7150 n         1 MOL     -0.448242
    141 C43         7.0180    1.4280   -0.6720 c3        1 MOL     -0.043709
    142 C44         6.0180    2.0320    0.3710 c         1 MOL      0.410263
    143 O21         6.3160    2.9670    1.0630 o         1 MOL     -0.489964
    144 C45         6.6030    1.9950   -2.0060 c3        1 MOL      0.086436
    145 C46         7.5530    1.7300   -3.1790 c3        1 MOL      0.049769
    146 C47         7.0390    2.4430   -4.4400 c3        1 MOL     -0.426595
    147 C48         8.1000    2.2070   -5.4890 c3        1 MOL      0.262310
    148 N13         7.9980    3.0430   -6.6200 n4        1 MOL     -0.343294
    149 H67         6.5210   -0.4190   -1.4530 hn        1 MOL      0.347499
    150 H68         8.0150    1.8520   -0.5360 h1        1 MOL      0.097126
    151 H69         6.4520    3.0680   -2.0020 hc        1 MOL     -0.011104
    152 H70         5.6330    1.5830   -2.2820 hc        1 MOL     -0.011104
    153 H71         7.6080    0.6450   -3.2730 hc        1 MOL      0.005331
    154 H72         8.5170    2.1960   -2.9720 hc        1 MOL      0.005331
    155 H73         7.1430    3.4790   -4.1070 hc        1 MOL      0.160982
    156 H74         6.0700    2.0100   -4.6720 hc        1 MOL      0.160982
    157 H75         8.0940    1.1820   -5.8470 hx        1 MOL      0.034166
    158 H76         9.0890    2.4030   -5.0720 hx        1 MOL      0.034166
    159 H77         8.0910    3.9990   -6.3250 hn        1 MOL      0.298899
    160 H78         8.6910    2.8690   -7.3440 hn        1 MOL      0.298899
    161 H79         7.1280    2.8830   -7.1000 hn        1 MOL      0.298899
    162 N14         4.8500    1.4210    0.4530 n         1 MOL     -0.071420
    163 C49         3.8450    1.8810    1.5080 c3        1 MOL     -0.035603
    164 C50         4.2530    1.6300    2.9680 c         1 MOL      0.409427
    165 O22         4.2050    2.6200    3.7310 o         1 MOL     -0.553004
    166 C51         2.5490    1.0260    1.3760 c3        1 MOL      0.151125
    167 C52         1.6940    1.6140    0.2050 c3        1 MOL     -0.303962
    168 C53         0.4300    0.8540   -0.2400 c         1 MOL      0.803645
    169 O23         0.3020   -0.3940   -0.0900 o         1 MOL     -0.765357
    170 O24        -0.4740    1.4160   -0.8380 o         1 MOL     -0.765357
    171 H80         4.5480    0.6550   -0.1300 hn        1 MOL     -0.023147
    172 H81         3.7700    2.9610    1.4190 h1        1 MOL      0.095041
    173 H82         1.9000    1.1340    2.2440 hc        1 MOL     -0.061169
    174 H83         2.7510   -0.0110    1.1120 hc        1 MOL     -0.061169
    175 H84         2.2650    1.7810   -0.7000 hc        1 MOL      0.047661
    176 H85         1.3530    2.6310    0.4100 hc        1 MOL      0.047661
    177 N15         4.7940    0.4890    3.3870 n         1 MOL     -0.006176
    178 C54         5.4420    0.2170    4.6570 c3        1 MOL     -0.332730
    179 H86         6.5180    0.3540    4.5530 h1        1 MOL      0.116223
    180 H87         5.0610    0.9020    5.4140 h1        1 MOL      0.116223
    181 H88         5.2340   -0.8100    4.9580 h1        1 MOL      0.116223
    182 H89         4.8640   -0.2980    2.7480 hn        1 MOL      0.092465
    183 Ca1        -1.8100   -0.6630   -1.5140 Ca        1 MOL      1.741437
    184 O25        -0.0810   -0.4480   -3.7800 oh        1 MOL     -0.778045
    185 H90         0.0930   -1.3710   -3.9480 ho        1 MOL      0.367743
    186 H91        -0.8400   -0.2340   -4.3140 ho        1 MOL      0.367743
    187 O26        -0.8070   -2.9850   -2.3900 oh        1 MOL     -0.778045
    188 H92        -0.1980   -3.3000   -3.0610 ho        1 MOL      0.367743
    189 H93        -1.3870   -3.7260   -2.2190 ho        1 MOL      0.367743
@<TRIPOS>BOND
     1    1    2 1   
     2    1    4 1   
     3    1    5 1   
     4    1    6 1   
     5    2    3 2   
     6    2    7 1   
     7    7    8 1   
     8    7   15 1   
     9    8    9 1   
    10    8   11 1   
    11    8   16 1   
    12    9   10 2   
    13    9   19 1   
    14   11   12 1   
    15   11   17 1   
    16   11   18 1   
    17   12   13 1   
    18   12   14 1   
    19   19   20 1   
    20   19   28 1   
    21   20   21 1   
    22   20   23 1   
    23   20   29 1   
    24   21   22 2   
    25   21   41 1   
    26   23   24 1   
    27   23   30 1   
    28   23   31 1   
    29   24   25 1   
    30   24   32 1   
    31   24   33 1   
    32   25   26 1   
    33   25   34 1   
    34   25   35 1   
    35   26   27 1   
    36   26   36 1   
    37   26   37 1   
    38   27   38 1   
    39   27   39 1   
    40   27   40 1   
    41   41   42 1   
    42   41   49 1   
    43   42   43 1   
    44   42   45 1   
    45   42   50 1   
    46   43   44 2   
    47   43   53 1   
    48   45   46 1   
    49   45   51 1   
    50   45   52 1   
    51   46   47 1   
    52   46   48 1   
    53   53   54 1   
    54   53   57 1   
    55   54   55 1   
    56   54   58 1   
    57   54   59 1   
    58   55   56 2   
    59   55   60 1   
    60   60   61 1   
    61   60   68 1   
    62   61   62 1   
    63   61   64 1   
    64   61   69 1   
    65   62   63 2   
    66   62   72 1   
    67   64   65 1   
    68   64   70 1   
    69   64   71 1   
    70   65   66 1   
    71   65   67 1   
    72   72   73 1   
    73   72   76 1   
    74   73   74 1   
    75   73   77 1   
    76   73   78 1   
    77   74   75 2   
    78   74   79 1   
    79   79   80 1   
    80   79   86 1   
    81   80   81 1   
    82   80   83 1   
    83   80   87 1   
    84   81   82 2   
    85   81   93 1   
    86   83   84 1   
    87   83   85 1   
    88   83   88 1   
    89   84   90 1   
    90   84   91 1   
    91   84   92 1   
    92   85   89 1   
    93   93   94 1   
    94   93  101 1   
    95   94   95 1   
    96   94   97 1   
    97   94  102 1   
    98   95   96 2   
    99   95  112 1   
   100   97   98 1   
   101   97   99 1   
   102   97  103 1   
   103   98  100 1   
   104   98  104 1   
   105   98  105 1   
   106   99  106 1   
   107   99  107 1   
   108   99  108 1   
   109  100  109 1   
   110  100  110 1   
   111  100  111 1   
   112  112  113 1   
   113  112  119 1   
   114  113  114 1   
   115  113  116 1   
   116  113  120 1   
   117  114  115 2   
   118  114  126 1   
   119  116  117 1   
   120  116  118 1   
   121  116  121 1   
   122  117  123 1   
   123  117  124 1   
   124  117  125 1   
   125  118  122 1   
   126  126  127 1   
   127  126  133 1   
   128  127  128 1   
   129  127  130 1   
   130  127  134 1   
   131  128  129 2   
   132  128  140 1   
   133  130  131 1   
   134  130  132 1   
   135  130  135 1   
   136  131  137 1   
   137  131  138 1   
   138  131  139 1   
   139  132  136 1   
   140  140  141 1   
   141  140  149 1   
   142  141  142 1   
   143  141  144 1   
   144  141  150 1   
   145  142  143 2   
   146  142  162 1   
   147  144  145 1   
   148  144  151 1   
   149  144  152 1   
   150  145  146 1   
   151  145  153 1   
   152  145  154 1   
   153  146  147 1   
   154  146  155 1   
   155  146  156 1   
   156  147  148 1   
   157  147  157 1   
   158  147  158 1   
   159  148  159 1   
   160  148  160 1   
   161  148  161 1   
   162  162  163 1   
   163  162  171 1   
   164  163  164 1   
   165  163  166 1   
   166  163  172 1   
   167  164  165 2   
   168  164  177 1   
   169  166  167 1   
   170  166  173 1   
   171  166  174 1   
   172  167  168 1   
   173  167  175 1   
   174  167  176 1   
   175  168  169 1   
   176  168  170 1   
   177  177  178 1   
   178  177  182 1   
   179  178  179 1   
   180  178  180 1   
   181  178  181 1   
   182  184  185 1   
   183  184  186 1   
   184  187  188 1   
   185  187  189 1   
@<TRIPOS>SUBSTRUCTURE
     1 MOL         1 TEMP              0 ****  ****    0 ROOT
