@<TRIPOS>MOLECULE
MOL
  186   183     1     0     0
SMALL
resp


@<TRIPOS>ATOM
      1 C1         -0.2260    2.0490    5.9230 c3        1 MOL     -0.371911
      2 C2         -0.6540    1.6430    4.5190 c         1 MOL      0.647414
      3 O1          0.1610    1.9270    3.6310 o         1 MOL     -0.585116
      4 H1         -0.9750    1.7160    6.6410 hc        1 MOL      0.096599
      5 H2          0.7320    1.5870    6.1600 hc        1 MOL      0.096599
      6 H3         -0.1300    3.1330    5.9750 hc        1 MOL      0.096599
      7 N1         -1.8820    1.1280    4.3340 n         1 MOL     -0.451715
      8 C3         -2.4730    0.9590    3.0480 c3        1 MOL      0.019541
      9 C4         -2.9560    2.3760    2.4490 c         1 MOL      0.446421
     10 O2         -4.0430    2.8520    2.7710 o         1 MOL     -0.499041
     11 C5         -3.6830   -0.0100    3.1090 c3        1 MOL     -0.203683
     12 C6         -4.3780   -0.3050    1.8170 c         1 MOL      0.695002
     13 O3         -3.7610   -0.1320    0.7410 o         1 MOL     -0.639007
     14 O4         -5.5600   -0.7550    1.8690 o         1 MOL     -0.639007
     15 H4         -2.4310    0.8300    5.1290 hn        1 MOL      0.321467
     16 H5         -1.6870    0.5610    2.4170 h1        1 MOL      0.020973
     17 H6         -4.3380    0.2930    3.9290 hc        1 MOL      0.063523
     18 H7         -3.3810   -0.9930    3.4810 hc        1 MOL      0.063523
     19 N2         -2.1020    2.9910    1.5980 n         1 MOL     -0.128048
     20 C7         -2.1520    4.4320    1.3670 c3        1 MOL     -0.084381
     21 C8         -3.0510    4.8740    0.1830 c         1 MOL      0.399098
     22 O5         -3.8980    5.7410    0.3440 o         1 MOL     -0.506605
     23 C9         -0.6960    4.9850    1.2810 c3        1 MOL     -0.053000
     24 C10        -0.5010    6.4750    1.0110 c3        1 MOL     -0.029265
     25 C11         0.9590    6.9290    1.1270 c3        1 MOL      0.074548
     26 C12         1.1800    8.3840    0.7660 c3        1 MOL     -0.171230
     27 N3          2.5420    8.6030    0.3880 n4        1 MOL     -0.114353
     28 H8         -1.2570    2.5090    1.3060 hn        1 MOL      0.155877
     29 H9         -2.5540    4.9740    2.2220 h1        1 MOL      0.105418
     30 H10        -0.1840    4.3450    0.5690 hc        1 MOL      0.072319
     31 H11        -0.2530    4.8530    2.2770 hc        1 MOL      0.072319
     32 H12        -1.1840    7.0660    1.6210 hc        1 MOL      0.020898
     33 H13        -0.7760    6.6440   -0.0280 hc        1 MOL      0.020898
     34 H14         1.5600    6.2890    0.4680 hc        1 MOL      0.004545
     35 H15         1.3490    6.6760    2.1180 hc        1 MOL      0.004545
     36 H16         1.0210    9.0270    1.6330 hx        1 MOL      0.141978
     37 H17         0.4770    8.5830   -0.0420 hx        1 MOL      0.141978
     38 H18         3.1610    8.5930    1.1860 hn        1 MOL      0.235778
     39 H19         2.8840    7.9490   -0.3070 hn        1 MOL      0.235778
     40 H20         2.7070    9.5010   -0.0450 hn        1 MOL      0.235778
     41 N4         -2.9730    4.1920   -0.9870 n         1 MOL     -0.462017
     42 C13        -4.1060    4.1600   -1.9890 c3        1 MOL      0.024649
     43 C14        -5.4170    3.4960   -1.4430 c         1 MOL      0.454735
     44 O6         -6.4400    3.9300   -1.8960 o         1 MOL     -0.549001
     45 C15        -3.7120    3.3670   -3.2080 c3        1 MOL     -0.295881
     46 C16        -2.7750    2.1990   -2.9190 c         1 MOL      0.696664
     47 O7         -2.7980    1.6550   -1.7990 o         1 MOL     -0.698169
     48 O8         -1.9500    1.8490   -3.7840 o         1 MOL     -0.698169
     49 H21        -2.4050    3.3570   -0.9560 hn        1 MOL      0.317044
     50 H22        -4.1810    5.2310   -2.2230 h1        1 MOL      0.105748
     51 H23        -3.3080    4.0590   -3.9590 hc        1 MOL      0.102400
     52 H24        -4.5820    3.0790   -3.8050 hc        1 MOL      0.102400
     53 N5         -5.3230    2.4820   -0.6070 n         1 MOL      0.073017
     54 C17        -6.5010    1.8630    0.1380 c3        1 MOL     -0.098301
     55 C18        -7.1290    0.7320   -0.7010 c         1 MOL      0.568607
     56 O9         -8.2150    0.9260   -1.2500 o         1 MOL     -0.557825
     57 H25        -4.4230    2.0150   -0.5320 hn        1 MOL     -0.070595
     58 H26        -7.2930    2.6020    0.2780 h1        1 MOL      0.076586
     59 H27        -6.2210    1.5250    1.1340 h1        1 MOL      0.076586
     60 N6         -6.5000   -0.4030   -0.8710 n         1 MOL     -0.268676
     61 C19        -6.9890   -1.5390   -1.6360 c3        1 MOL     -0.052360
     62 C20        -6.8220   -2.9180   -1.0030 c         1 MOL      0.434668
     63 O10        -7.1310   -3.9630   -1.5260 o         1 MOL     -0.554184
     64 C21        -6.4280   -1.5740   -3.0450 c3        1 MOL     -0.022757
     65 C22        -4.8650   -1.6180   -3.2210 c         1 MOL      0.541608
     66 O11        -4.4920   -1.6960   -4.4100 o         1 MOL     -0.586890
     67 O12        -4.0810   -1.6100   -2.1890 o         1 MOL     -0.586890
     68 H28        -5.6490   -0.5410   -0.3480 hn        1 MOL      0.047714
     69 H29        -8.0690   -1.3590   -1.5590 h1        1 MOL      0.096977
     70 H30        -6.8020   -0.6930   -3.5780 hc        1 MOL      0.035422
     71 H31        -6.9690   -2.3750   -3.5520 hc        1 MOL      0.035422
     72 N7         -6.4370   -2.9140    0.2010 n         1 MOL     -0.103909
     73 C23        -6.2220   -4.0450    1.0500 c3        1 MOL     -0.254012
     74 C24        -4.8360   -4.6370    1.1190 c         1 MOL      0.544415
     75 O13        -4.6860   -5.8120    1.5840 o         1 MOL     -0.576274
     76 H32        -6.3110   -2.0140    0.6420 hn        1 MOL      0.209679
     77 H33        -6.8580   -4.8660    0.7150 h1        1 MOL      0.117451
     78 H34        -6.3810   -3.7800    2.0990 h1        1 MOL      0.117451
     79 N8         -3.8070   -3.9290    0.6240 n         1 MOL     -0.143002
     80 C25        -2.4330   -4.4710    0.4040 c3        1 MOL     -0.230115
     81 C26        -1.4210   -3.5410    1.0320 c         1 MOL      0.596358
     82 O14        -1.5300   -2.2840    0.9460 o         1 MOL     -0.631255
     83 C27        -2.1050   -4.6540   -1.0560 c3        1 MOL      0.395060
     84 C28        -3.1800   -5.4770   -1.8080 c3        1 MOL     -0.504832
     85 O15        -1.9370   -3.4190   -1.6100 oh        1 MOL     -0.612196
     86 H35        -3.9480   -2.9580    0.3860 hn        1 MOL      0.133489
     87 H36        -2.4200   -5.4480    0.8870 h1        1 MOL      0.106050
     88 H37        -1.1700   -5.1870   -1.2110 h1        1 MOL     -0.010411
     89 H38        -2.0220   -3.4830   -2.5720 ho        1 MOL      0.411051
     90 H39        -4.0760   -4.8970   -2.0230 hc        1 MOL      0.144855
     91 H40        -2.7490   -5.8110   -2.7560 hc        1 MOL      0.144855
     92 H41        -3.4470   -6.3460   -1.2150 hc        1 MOL      0.144855
     93 N9         -0.3120   -4.0670    1.5370 n         1 MOL     -0.546002
     94 C29         0.9400   -3.3370    1.6880 c3        1 MOL      0.022813
     95 C30         2.0080   -3.8470    0.7700 c         1 MOL      0.418251
     96 O16         2.3720   -5.0540    0.7560 o         1 MOL     -0.529022
     97 C31         1.2440   -3.2510    3.2430 c3        1 MOL      0.025246
     98 C32         0.1730   -2.3270    3.8440 c3        1 MOL      0.224471
     99 C33         2.6690   -2.8010    3.4790 c3        1 MOL     -0.281949
    100 C34         0.2730   -2.0920    5.3280 c3        1 MOL     -0.294538
    101 H42        -0.3330   -5.0710    1.6390 hn        1 MOL      0.336926
    102 H43         0.7720   -2.3150    1.3380 h1        1 MOL      0.109220
    103 H44         1.0670   -4.2360    3.6740 hc        1 MOL      0.040854
    104 H45        -0.8350   -2.6740    3.6080 hc        1 MOL      0.001657
    105 H46         0.2860   -1.3550    3.3710 hc        1 MOL      0.001657
    106 H47         3.4120   -3.4380    2.9990 hc        1 MOL      0.057834
    107 H48         2.9630   -1.7680    3.2960 hc        1 MOL      0.057834
    108 H49         2.8570   -2.9150    4.5480 hc        1 MOL      0.057834
    109 H50        -0.6130   -1.5180    5.6110 hc        1 MOL      0.054998
    110 H51         0.3600   -3.0520    5.8340 hc        1 MOL      0.054998
    111 H52         1.1610   -1.5010    5.5430 hc        1 MOL      0.054998
    112 N10         2.2960   -2.9950   -0.2460 n         1 MOL     -0.057009
    113 C35         3.3870   -3.1930   -1.1790 c3        1 MOL     -0.169359
    114 C36         4.7940   -2.8580   -0.6680 c         1 MOL      0.361764
    115 O17         4.9950   -2.1660    0.3750 o         1 MOL     -0.286597
    116 C37         3.0830   -2.2720   -2.4420 c3        1 MOL      0.220920
    117 C38         1.8490   -2.7800   -3.1980 c3        1 MOL     -0.361278
    118 O18         2.8320   -0.9140   -2.1100 oh        1 MOL     -0.630846
    119 H53         1.7990   -2.1140   -0.3340 hn        1 MOL      0.166536
    120 H54         3.3360   -4.2490   -1.4400 h1        1 MOL      0.088749
    121 H55         3.9430   -2.2850   -3.1140 h1        1 MOL      0.045334
    122 H56         1.9170   -0.8100   -1.8090 ho        1 MOL      0.421170
    123 H57         2.1660   -3.6010   -3.8500 hc        1 MOL      0.099943
    124 H58         1.0210   -3.0660   -2.5440 hc        1 MOL      0.099943
    125 H59         1.4910   -2.0290   -3.9080 hc        1 MOL      0.099943
    126 N11         5.8480   -3.2150   -1.4150 n         1 MOL     -0.309406
    127 C39         7.2610   -2.7990   -0.9960 c3        1 MOL     -0.133029
    128 C40         7.4150   -1.3300   -0.4180 c         1 MOL      0.549186
    129 O19         7.9530   -1.1250    0.6690 o         1 MOL     -0.528078
    130 C41         8.1920   -2.9730   -2.1820 c3        1 MOL      0.253572
    131 C42         8.6410   -4.4420   -2.5680 c3        1 MOL     -0.261220
    132 O20         7.6760   -2.3010   -3.3410 oh        1 MOL     -0.652624
    133 H60         5.8080   -3.9250   -2.1330 hn        1 MOL      0.287288
    134 H61         7.5580   -3.4690   -0.1930 h1        1 MOL      0.123042
    135 H62         9.1450   -2.5090   -1.9120 h1        1 MOL      0.035490
    136 H63         8.3900   -2.2380   -3.9910 ho        1 MOL      0.419852
    137 H64         7.7970   -5.1400   -2.5380 hc        1 MOL      0.079505
    138 H65         8.9840   -4.5330   -3.5940 hc        1 MOL      0.079505
    139 H66         9.3380   -4.8930   -1.8710 hc        1 MOL      0.079505
    140 N12         6.9200   -0.4120   -1.1870 n         1 MOL     -0.465651
    141 C43         6.9790    1.0650   -0.8650 c3        1 MOL      0.032600
    142 C44         6.1620    1.4720    0.3990 c         1 MOL      0.338505
    143 O21         6.6030    2.3370    1.0790 o         1 MOL     -0.497800
    144 C45         6.6030    1.8450   -2.1110 c3        1 MOL      0.013682
    145 C46         6.9140    3.3200   -2.1930 c3        1 MOL     -0.041908
    146 C47         6.3620    4.0270   -3.4640 c3        1 MOL      0.061934
    147 C48         4.8910    4.3140   -3.1020 c3        1 MOL      0.135202
    148 N13         4.3350    5.1440   -4.2020 n4        1 MOL     -0.493862
    149 H67         6.3150   -0.6400   -1.9580 hn        1 MOL      0.303703
    150 H68         7.9930    1.3970   -0.6340 h1        1 MOL      0.104074
    151 H69         5.5230    1.7070   -2.1920 hc        1 MOL      0.011008
    152 H70         7.0980    1.3990   -2.9770 hc        1 MOL      0.011008
    153 H71         8.0060    3.3380   -2.1970 hc        1 MOL      0.019559
    154 H72         6.6120    3.8430   -1.2790 hc        1 MOL      0.019559
    155 H73         6.4910    3.4220   -4.3560 hc        1 MOL      0.015840
    156 H74         6.8150    5.0150   -3.4940 hc        1 MOL      0.015840
    157 H75         4.8250    4.8180   -2.1400 hx        1 MOL      0.036216
    158 H76         4.2480    3.4320   -3.0140 hx        1 MOL      0.036216
    159 H77         4.2820    4.6370   -5.0750 hn        1 MOL      0.327292
    160 H78         3.4180    5.4690   -3.9210 hn        1 MOL      0.327292
    161 H79         4.8850    5.9660   -4.3920 hn        1 MOL      0.327292
    162 N14         5.0120    0.8260    0.5570 n         1 MOL     -0.139384
    163 C49         4.2630    0.8760    1.8140 c3        1 MOL     -0.127593
    164 C50         4.9850    0.2110    2.9770 c         1 MOL      0.551368
    165 O22         5.0310    0.7960    4.0200 o         1 MOL     -0.565821
    166 C51         2.8370    0.3730    1.4960 c3        1 MOL      0.050953
    167 C52         2.0440    1.1990    0.4790 c3        1 MOL     -0.104347
    168 C53         0.8020    0.5490   -0.1100 c         1 MOL      0.745652
    169 O23         0.8620   -0.6250   -0.5600 o         1 MOL     -0.718378
    170 O24        -0.3040    1.2150   -0.1100 o         1 MOL     -0.718378
    171 H80         4.7210    0.0870   -0.0750 hn        1 MOL      0.281794
    172 H81         4.1520    1.9180    2.1350 h1        1 MOL      0.070856
    173 H82         2.2830    0.4400    2.4360 hc        1 MOL      0.049424
    174 H83         2.9260   -0.6570    1.1560 hc        1 MOL      0.049424
    175 H84         2.7130    1.5440   -0.3100 hc        1 MOL     -0.030290
    176 H85         1.7570    2.0990    1.0350 hc        1 MOL     -0.030290
    177 N15         5.6990   -0.9090    2.7610 n         1 MOL     -0.010352
    178 C54         6.5460   -1.5210    3.7930 c3        1 MOL     -0.439483
    179 H86         6.0010   -1.5560    4.7360 h1        1 MOL      0.143921
    180 H87         6.8130   -2.5340    3.4920 h1        1 MOL      0.143921
    181 H88         7.4520   -0.9280    3.9190 h1        1 MOL      0.143921
    182 H89         5.4780   -1.4180    1.9230 hn        1 MOL      0.053241
    183 Ca1        -2.0700   -0.6050   -1.0540 Ca        1 MOL      1.749345
    184 O25        -0.9740   -0.8600   -3.5200 oh        1 MOL     -1.019742
    185 H90        -1.6020   -0.3770   -4.0620 ho        1 MOL      0.470805
    186 H91        -0.2130   -0.9800   -4.0850 ho        1 MOL      0.470805
@<TRIPOS>BOND
     1    1    2 1   
     2    1    4 1   
     3    1    5 1   
     4    1    6 1   
     5    2    3 2   
     6    2    7 1   
     7    7    8 1   
     8    7   15 1   
     9    8    9 1   
    10    8   11 1   
    11    8   16 1   
    12    9   10 2   
    13    9   19 1   
    14   11   12 1   
    15   11   17 1   
    16   11   18 1   
    17   12   13 1   
    18   12   14 1   
    19   19   20 1   
    20   19   28 1   
    21   20   21 1   
    22   20   23 1   
    23   20   29 1   
    24   21   22 2   
    25   21   41 1   
    26   23   24 1   
    27   23   30 1   
    28   23   31 1   
    29   24   25 1   
    30   24   32 1   
    31   24   33 1   
    32   25   26 1   
    33   25   34 1   
    34   25   35 1   
    35   26   27 1   
    36   26   36 1   
    37   26   37 1   
    38   27   38 1   
    39   27   39 1   
    40   27   40 1   
    41   41   42 1   
    42   41   49 1   
    43   42   43 1   
    44   42   45 1   
    45   42   50 1   
    46   43   44 2   
    47   43   53 1   
    48   45   46 1   
    49   45   51 1   
    50   45   52 1   
    51   46   47 1   
    52   46   48 1   
    53   53   54 1   
    54   53   57 1   
    55   54   55 1   
    56   54   58 1   
    57   54   59 1   
    58   55   56 2   
    59   55   60 1   
    60   60   61 1   
    61   60   68 1   
    62   61   62 1   
    63   61   64 1   
    64   61   69 1   
    65   62   63 2   
    66   62   72 1   
    67   64   65 1   
    68   64   70 1   
    69   64   71 1   
    70   65   66 1   
    71   65   67 1   
    72   72   73 1   
    73   72   76 1   
    74   73   74 1   
    75   73   77 1   
    76   73   78 1   
    77   74   75 2   
    78   74   79 1   
    79   79   80 1   
    80   79   86 1   
    81   80   81 1   
    82   80   83 1   
    83   80   87 1   
    84   81   82 2   
    85   81   93 1   
    86   83   84 1   
    87   83   85 1   
    88   83   88 1   
    89   84   90 1   
    90   84   91 1   
    91   84   92 1   
    92   85   89 1   
    93   93   94 1   
    94   93  101 1   
    95   94   95 1   
    96   94   97 1   
    97   94  102 1   
    98   95   96 2   
    99   95  112 1   
   100   97   98 1   
   101   97   99 1   
   102   97  103 1   
   103   98  100 1   
   104   98  104 1   
   105   98  105 1   
   106   99  106 1   
   107   99  107 1   
   108   99  108 1   
   109  100  109 1   
   110  100  110 1   
   111  100  111 1   
   112  112  113 1   
   113  112  119 1   
   114  113  114 1   
   115  113  116 1   
   116  113  120 1   
   117  114  115 2   
   118  114  126 1   
   119  116  117 1   
   120  116  118 1   
   121  116  121 1   
   122  117  123 1   
   123  117  124 1   
   124  117  125 1   
   125  118  122 1   
   126  126  127 1   
   127  126  133 1   
   128  127  128 1   
   129  127  130 1   
   130  127  134 1   
   131  128  129 2   
   132  128  140 1   
   133  130  131 1   
   134  130  132 1   
   135  130  135 1   
   136  131  137 1   
   137  131  138 1   
   138  131  139 1   
   139  132  136 1   
   140  140  141 1   
   141  140  149 1   
   142  141  142 1   
   143  141  144 1   
   144  141  150 1   
   145  142  143 2   
   146  142  162 1   
   147  144  145 1   
   148  144  151 1   
   149  144  152 1   
   150  145  146 1   
   151  145  153 1   
   152  145  154 1   
   153  146  147 1   
   154  146  155 1   
   155  146  156 1   
   156  147  148 1   
   157  147  157 1   
   158  147  158 1   
   159  148  159 1   
   160  148  160 1   
   161  148  161 1   
   162  162  163 1   
   163  162  171 1   
   164  163  164 1   
   165  163  166 1   
   166  163  172 1   
   167  164  165 2   
   168  164  177 1   
   169  166  167 1   
   170  166  173 1   
   171  166  174 1   
   172  167  168 1   
   173  167  175 1   
   174  167  176 1   
   175  168  169 1   
   176  168  170 1   
   177  177  178 1   
   178  177  182 1   
   179  178  179 1   
   180  178  180 1   
   181  178  181 1   
   182  184  185 1   
   183  184  186 1   
@<TRIPOS>SUBSTRUCTURE
     1 MOL         1 TEMP              0 ****  ****    0 ROOT
