@<TRIPOS>MOLECULE
MOL
  175   173     1     0     0
SMALL
resp


@<TRIPOS>ATOM
      1 C1         -0.4830    4.8480    4.9570 c3        1 MOL     -0.408769
      2 C2         -1.0380    4.8280    3.5560 c         1 MOL      0.713812
      3 O1         -0.2460    4.8190    2.5790 o         1 MOL     -0.570702
      4 H1         -1.2890    5.0450    5.6640 hc        1 MOL      0.099217
      5 H2         -0.0300    3.8830    5.1830 hc        1 MOL      0.099217
      6 H3          0.2700    5.6320    5.0380 hc        1 MOL      0.099217
      7 N1         -2.3300    4.7760    3.3550 n         1 MOL     -0.689482
      8 C3         -2.8730    4.2560    2.1000 c3        1 MOL      0.421459
      9 C4         -3.1960    5.2590    1.0030 c         1 MOL      0.520155
     10 O2         -3.3660    6.4440    1.2180 o         1 MOL     -0.590492
     11 C5         -4.1710    3.4860    2.3860 c3        1 MOL     -0.496617
     12 C6         -4.6110    2.3990    1.4200 c         1 MOL      0.817721
     13 O3         -5.7240    1.9500    1.4610 o         1 MOL     -0.650177
     14 O4         -3.8050    1.9630    0.5480 o         1 MOL     -0.650177
     15 H4         -2.9270    4.8660    4.1620 hn        1 MOL      0.341683
     16 H5         -2.1920    3.5240    1.6670 h1        1 MOL     -0.005574
     17 H6         -4.8960    4.2800    2.5730 hc        1 MOL      0.087347
     18 H7         -3.9820    2.9940    3.3400 hc        1 MOL      0.087347
     19 N2         -3.3410    4.7970   -0.1990 n         1 MOL     -0.402107
     20 C7         -3.7270    5.5200   -1.3810 c3        1 MOL      0.288436
     21 C8         -4.6410    4.7230   -2.3490 c         1 MOL      0.272305
     22 O5         -5.1770    5.2840   -3.3080 o         1 MOL     -0.535454
     23 C9         -2.4160    5.8490   -2.0900 c3        1 MOL     -0.334849
     24 H8         -3.3340    3.7890   -0.2640 hn        1 MOL      0.219221
     25 H9         -4.2460    6.4340   -1.0790 h1        1 MOL      0.027036
     26 H10        -1.7840    6.4700   -1.4640 hc        1 MOL      0.091488
     27 H11        -1.8290    4.9490   -2.2480 hc        1 MOL      0.091488
     28 H12        -2.6400    6.2860   -3.0710 hc        1 MOL      0.091488
     29 N3         -4.7200    3.3960   -2.2690 n         1 MOL     -0.142032
     30 C10        -5.2420    2.5380   -3.3270 c3        1 MOL      0.266334
     31 C11        -6.3030    1.6180   -2.7500 c         1 MOL      0.236535
     32 O6         -7.2290    1.2180   -3.4920 o         1 MOL     -0.551797
     33 C12        -4.0990    1.6230   -3.9170 c3        1 MOL     -0.244483
     34 C13        -3.2340    0.9510   -2.8170 c         1 MOL      0.691438
     35 O7         -3.8610    0.2880   -1.9540 o         1 MOL     -0.666584
     36 O8         -1.9890    1.0770   -2.7710 o         1 MOL     -0.666584
     37 H13        -4.2910    2.9050   -1.4900 hn        1 MOL      0.118657
     38 H14        -5.7430    3.0730   -4.1250 h1        1 MOL      0.044226
     39 H15        -3.3580    2.1090   -4.5560 hc        1 MOL      0.042209
     40 H16        -4.6610    0.9010   -4.4990 hc        1 MOL      0.042209
     41 N4         -6.3140    1.3450   -1.4740 n         1 MOL     -0.005470
     42 C14        -7.3000    0.3900   -0.9060 c3        1 MOL     -0.296896
     43 C15        -7.0600   -1.1200   -1.2310 c         1 MOL      0.514944
     44 O9         -7.9400   -1.9340   -0.8570 o         1 MOL     -0.634040
     45 H17        -5.5430    1.6730   -0.9100 hn        1 MOL     -0.019099
     46 H18        -8.2910    0.6430   -1.2820 h1        1 MOL      0.143348
     47 H19        -7.2680    0.4950    0.1760 h1        1 MOL      0.143348
     48 N5         -5.9620   -1.5870   -1.7760 n         1 MOL     -0.206092
     49 C16        -5.7400   -2.9880   -2.1170 c3        1 MOL     -0.041278
     50 C17        -5.6630   -3.9630   -0.8840 c         1 MOL      0.377404
     51 O10        -5.5020   -5.1930   -1.0490 o         1 MOL     -0.537552
     52 C18        -4.5690   -3.1610   -3.0840 c3        1 MOL     -0.125582
     53 C19        -3.1860   -2.8610   -2.4580 c         1 MOL      0.655123
     54 N6         -2.2030   -3.2380   -3.2520 n         1 MOL     -0.688447
     55 O11        -2.9120   -2.4140   -1.3210 o         1 MOL     -0.627542
     56 H20        -5.2560   -0.8920   -1.9470 hn        1 MOL      0.247349
     57 H21        -6.6980   -3.1880   -2.5890 h1        1 MOL      0.098070
     58 H22        -4.6900   -2.4270   -3.8780 hc        1 MOL      0.044741
     59 H23        -4.5920   -4.1520   -3.5320 hc        1 MOL      0.044741
     60 H24        -2.2740   -3.5120   -4.2270 hn        1 MOL      0.339720
     61 H25        -1.3210   -2.9310   -2.8700 hn        1 MOL      0.339720
     62 N7         -5.7400   -3.4650    0.3130 n         1 MOL     -0.010265
     63 C20        -5.9430   -4.3380    1.4980 c3        1 MOL     -0.242781
     64 C21        -4.6100   -4.6300    2.2450 c         1 MOL      0.575006
     65 O12        -4.4860   -5.6040    2.9890 o         1 MOL     -0.582661
     66 H26        -5.8710   -2.4620    0.3650 hn        1 MOL      0.176078
     67 H27        -6.4430   -5.2720    1.2450 h1        1 MOL      0.108074
     68 H28        -6.5570   -3.8080    2.2330 h1        1 MOL      0.108074
     69 N8         -3.5120   -3.9620    1.8710 n         1 MOL     -0.481223
     70 C22        -2.0820   -4.3240    2.1540 c3        1 MOL      0.025068
     71 C23        -1.1200   -3.1750    1.9340 c         1 MOL      0.326266
     72 O13        -1.1750   -2.3610    0.9940 o         1 MOL     -0.486518
     73 C24        -1.7130   -5.4090    1.2420 c3        1 MOL      0.608274
     74 C25        -2.1180   -6.8190    1.6550 c3        1 MOL     -0.617423
     75 O14        -2.1100   -5.1660   -0.1100 oh        1 MOL     -0.600089
     76 H29        -3.7620   -3.3770    1.0890 hn        1 MOL      0.295205
     77 H30        -2.0170   -4.7040    3.1710 h1        1 MOL      0.078703
     78 H31        -0.6220   -5.4250    1.2070 h1        1 MOL     -0.066045
     79 H32        -1.7350   -4.3140   -0.3620 ho        1 MOL      0.356033
     80 H33        -3.1530   -7.0850    1.4480 hc        1 MOL      0.154516
     81 H34        -1.3900   -7.4480    1.1480 hc        1 MOL      0.154516
     82 H35        -2.0720   -6.8800    2.7450 hc        1 MOL      0.154516
     83 N9         -0.0560   -3.1730    2.6860 n         1 MOL     -0.353222
     84 C26         1.0990   -2.3700    2.4460 c3        1 MOL      0.011084
     85 C27         1.8240   -2.8380    1.1730 c         1 MOL      0.580970
     86 O15         2.3500   -3.9800    1.0600 o         1 MOL     -0.578294
     87 C28         1.9590   -2.0990    3.7060 c3        1 MOL     -0.069593
     88 C29         1.2590   -1.0550    4.5960 c3        1 MOL      0.134272
     89 C30         3.4170   -1.7540    3.4010 c3        1 MOL     -0.066225
     90 C31         1.8240   -0.7390    5.9690 c3        1 MOL     -0.099936
     91 H36         0.0260   -4.0070    3.2460 hn        1 MOL      0.212726
     92 H37         0.5800   -1.4390    2.2120 h1        1 MOL      0.121395
     93 H38         2.0090   -2.9350    4.4110 hc        1 MOL      0.020359
     94 H39         0.1980   -1.2680    4.6570 hc        1 MOL     -0.041544
     95 H40         1.3240   -0.1350    4.0190 hc        1 MOL     -0.041544
     96 H41         3.8930   -1.6850    4.3810 hc        1 MOL      0.022579
     97 H42         3.9360   -2.5780    2.9030 hc        1 MOL      0.022579
     98 H43         3.5310   -0.7800    2.9110 hc        1 MOL      0.022579
     99 H44         1.1140   -0.1900    6.5990 hc        1 MOL      0.015164
    100 H45         1.8800   -1.7100    6.4710 hc        1 MOL      0.015164
    101 H46         2.7840   -0.2310    5.9490 hc        1 MOL      0.015164
    102 N10         2.0860   -1.8320    0.2620 n         1 MOL     -0.270862
    103 C32         2.9550   -1.9350   -0.8500 c3        1 MOL      0.006689
    104 C33         4.4460   -1.5140   -0.6120 c         1 MOL      0.510467
    105 O16         4.7290   -0.9830    0.4900 o         1 MOL     -0.440029
    106 C34         2.3120   -1.1470   -2.0140 c3        1 MOL     -0.358834
    107 C35         0.8310   -1.4230   -2.2120 c         1 MOL      0.804144
    108 O17         0.0270   -0.8190   -1.4740 o         1 MOL     -0.700506
    109 O18         0.3510   -2.1620   -3.1000 o         1 MOL     -0.700506
    110 H47         1.6340   -0.9460    0.4200 hn        1 MOL      0.178914
    111 H48         3.0310   -2.9340   -1.2790 h1        1 MOL      0.083454
    112 H49         2.9250   -1.3380   -2.8990 hc        1 MOL      0.089638
    113 H50         2.4770   -0.0900   -1.8440 hc        1 MOL      0.089638
    114 N11         5.3840   -1.6970   -1.5670 n         1 MOL     -0.709221
    115 C36         6.7910   -1.3440   -1.4530 c3        1 MOL      0.532539
    116 C37         6.9150    0.1610   -1.1470 c         1 MOL      0.252601
    117 O19         7.6990    0.5120   -0.2250 o         1 MOL     -0.484944
    118 C38         7.6140   -1.7490   -2.7230 c3        1 MOL     -0.323010
    119 C39         9.0830   -1.6360   -2.5270 ca        1 MOL      0.069271
    120 C40         9.7100   -1.7100   -1.3270 ca        1 MOL     -0.079092
    121 C41         9.7770   -1.2730   -3.6680 ca        1 MOL     -0.079092
    122 C42        11.1110   -1.7050   -1.2880 ca        1 MOL     -0.194996
    123 C43        11.1990   -1.2260   -3.6500 ca        1 MOL     -0.194996
    124 C44        11.8280   -1.3620   -2.4370 ca        1 MOL     -0.032437
    125 H51         5.1440   -2.1330   -2.4470 hn        1 MOL      0.344947
    126 H52         7.1270   -1.9370   -0.6000 h1        1 MOL      0.028480
    127 H53         7.3340   -1.1380   -3.5760 hc        1 MOL      0.087280
    128 H54         7.3870   -2.7870   -2.9460 hc        1 MOL      0.087280
    129 H55         9.1890   -1.7900   -0.3920 ha        1 MOL      0.094621
    130 H56         9.2120   -1.2210   -4.5940 ha        1 MOL      0.094621
    131 H57        11.6110   -1.9290   -0.3670 ha        1 MOL      0.124911
    132 H58        11.7100   -1.0330   -4.5830 ha        1 MOL      0.124911
    133 H59        12.9090   -1.3230   -2.3860 ha        1 MOL      0.078211
    134 N12         6.2330    1.1400   -1.8040 n         1 MOL     -0.104570
    135 C45         6.3980    2.5840   -1.3430 c3        1 MOL      0.062437
    136 C46         5.7520    2.8750    0.0450 c         1 MOL      0.277520
    137 O20         6.3120    3.6870    0.8040 o         1 MOL     -0.521849
    138 C47         5.7390    3.4730   -2.4530 c3        1 MOL     -0.128483
    139 C48         4.7090    2.4380   -2.9660 c3        1 MOL     -0.058116
    140 C49         5.3820    1.0350   -2.9110 c3        1 MOL      0.129236
    141 H60         7.4630    2.7880   -1.2770 h1        1 MOL      0.065234
    142 H61         5.3080    4.3640   -2.0060 hc        1 MOL      0.067093
    143 H62         6.5180    3.7970   -3.1430 hc        1 MOL      0.067093
    144 H63         3.8160    2.4610   -2.3440 hc        1 MOL      0.035415
    145 H64         4.5030    2.6110   -4.0210 hc        1 MOL      0.035415
    146 H65         4.7180    0.1740   -2.8840 h1        1 MOL     -0.027694
    147 H66         6.0600    0.8740   -3.7560 h1        1 MOL     -0.027694
    148 N13         4.7420    2.1780    0.4610 n         1 MOL      0.006062
    149 C50         4.0610    2.3370    1.7370 c3        1 MOL     -0.288413
    150 C51         4.9120    1.7510    2.8810 c         1 MOL      0.512982
    151 O21         4.8610    2.2940    3.9840 o         1 MOL     -0.558045
    152 C52         2.7280    1.6880    1.7920 c3        1 MOL     -0.061663
    153 C53         1.6340    2.4870    1.0400 c3        1 MOL     -0.019806
    154 C54         0.2820    1.8100    0.8340 c         1 MOL      0.593372
    155 O22         0.1170    0.6860    1.3290 o         1 MOL     -0.693483
    156 O23        -0.4990    2.3450    0.0120 o         1 MOL     -0.693483
    157 H67         4.3790    1.5460   -0.2370 hn        1 MOL      0.143994
    158 H68         3.8790    3.4000    1.8820 h1        1 MOL      0.167339
    159 H69         2.4350    1.7550    2.8370 hc        1 MOL      0.099008
    160 H70         2.6780    0.6740    1.4110 hc        1 MOL      0.099008
    161 H71         2.0610    2.6560    0.0420 hc        1 MOL      0.033999
    162 H72         1.5760    3.4950    1.4450 hc        1 MOL      0.033999
    163 N14         5.8000    0.7460    2.6570 n         1 MOL     -0.101308
    164 C55         6.7030    0.2190    3.7020 c3        1 MOL     -0.106918
    165 H73         7.7380    0.3930    3.4080 h1        1 MOL      0.052839
    166 H74         6.5040    0.7270    4.6450 h1        1 MOL      0.052839
    167 H75         6.5350   -0.8510    3.8220 h1        1 MOL      0.052839
    168 H76         5.7410    0.2240    1.7930 hn        1 MOL      0.095709
    169 Ca1        -1.9950    0.0380   -0.2040 Ca        1 MOL      1.681660
    170 O24        -4.2870   -0.8440    1.0910 oh        1 MOL     -0.749899
    171 H77        -4.6140    0.0310    0.8720 ho        1 MOL      0.366066
    172 H78        -4.7300   -1.0640    1.9130 ho        1 MOL      0.366066
    173 O25        -2.2090    0.2490    2.6980 oh        1 MOL     -0.749899
    174 H79        -2.5040    0.5460    3.5620 ho        1 MOL      0.366066
    175 H80        -1.2720    0.4560    2.6810 ho        1 MOL      0.366066
@<TRIPOS>BOND
     1    1    2 1   
     2    1    4 1   
     3    1    5 1   
     4    1    6 1   
     5    2    3 2   
     6    2    7 1   
     7    7    8 1   
     8    7   15 1   
     9    8    9 1   
    10    8   11 1   
    11    8   16 1   
    12    9   10 2   
    13    9   19 1   
    14   11   12 1   
    15   11   17 1   
    16   11   18 1   
    17   12   13 1   
    18   12   14 1   
    19   19   20 1   
    20   19   24 1   
    21   20   21 1   
    22   20   23 1   
    23   20   25 1   
    24   21   22 2   
    25   21   29 1   
    26   23   26 1   
    27   23   27 1   
    28   23   28 1   
    29   29   30 1   
    30   29   37 1   
    31   30   31 1   
    32   30   33 1   
    33   30   38 1   
    34   31   32 2   
    35   31   41 1   
    36   33   34 1   
    37   33   39 1   
    38   33   40 1   
    39   34   35 1   
    40   34   36 1   
    41   41   42 1   
    42   41   45 1   
    43   42   43 1   
    44   42   46 1   
    45   42   47 1   
    46   43   44 2   
    47   43   48 1   
    48   48   49 1   
    49   48   56 1   
    50   49   50 1   
    51   49   52 1   
    52   49   57 1   
    53   50   51 2   
    54   50   62 1   
    55   52   53 1   
    56   52   58 1   
    57   52   59 1   
    58   53   54 1   
    59   53   55 2   
    60   54   60 1   
    61   54   61 1   
    62   62   63 1   
    63   62   66 1   
    64   63   64 1   
    65   63   67 1   
    66   63   68 1   
    67   64   65 2   
    68   64   69 1   
    69   69   70 1   
    70   69   76 1   
    71   70   71 1   
    72   70   73 1   
    73   70   77 1   
    74   71   72 2   
    75   71   83 1   
    76   73   74 1   
    77   73   75 1   
    78   73   78 1   
    79   74   80 1   
    80   74   81 1   
    81   74   82 1   
    82   75   79 1   
    83   83   84 1   
    84   83   91 1   
    85   84   85 1   
    86   84   87 1   
    87   84   92 1   
    88   85   86 2   
    89   85  102 1   
    90   87   88 1   
    91   87   89 1   
    92   87   93 1   
    93   88   90 1   
    94   88   94 1   
    95   88   95 1   
    96   89   96 1   
    97   89   97 1   
    98   89   98 1   
    99   90   99 1   
   100   90  100 1   
   101   90  101 1   
   102  102  103 1   
   103  102  110 1   
   104  103  104 1   
   105  103  106 1   
   106  103  111 1   
   107  104  105 2   
   108  104  114 1   
   109  106  107 1   
   110  106  112 1   
   111  106  113 1   
   112  107  108 1   
   113  107  109 1   
   114  114  115 1   
   115  114  125 1   
   116  115  116 1   
   117  115  118 1   
   118  115  126 1   
   119  116  117 2   
   120  116  134 1   
   121  118  119 1   
   122  118  127 1   
   123  118  128 1   
   124  119  120 ar  
   125  119  121 ar  
   126  120  122 ar  
   127  120  129 1   
   128  121  123 ar  
   129  121  130 1   
   130  122  124 ar  
   131  122  131 1   
   132  123  124 ar  
   133  123  132 1   
   134  124  133 1   
   135  134  135 1   
   136  134  140 1   
   137  135  136 1   
   138  135  138 1   
   139  135  141 1   
   140  136  137 2   
   141  136  148 1   
   142  138  139 1   
   143  138  142 1   
   144  138  143 1   
   145  139  140 1   
   146  139  144 1   
   147  139  145 1   
   148  140  146 1   
   149  140  147 1   
   150  148  149 1   
   151  148  157 1   
   152  149  150 1   
   153  149  152 1   
   154  149  158 1   
   155  150  151 2   
   156  150  163 1   
   157  152  153 1   
   158  152  159 1   
   159  152  160 1   
   160  153  154 1   
   161  153  161 1   
   162  153  162 1   
   163  154  155 1   
   164  154  156 1   
   165  163  164 1   
   166  163  168 1   
   167  164  165 1   
   168  164  166 1   
   169  164  167 1   
   170  170  171 1   
   171  170  172 1   
   172  173  174 1   
   173  173  175 1   
@<TRIPOS>SUBSTRUCTURE
     1 MOL         1 TEMP              0 ****  ****    0 ROOT
