@<TRIPOS>MOLECULE
MOL
  189   185     1     0     0
SMALL
resp


@<TRIPOS>ATOM
      1 C1         -0.8060    3.6780    5.4300 c3        1 MOL     -0.330471
      2 C2         -1.0810    3.0630    4.0800 c         1 MOL      0.828296
      3 O1         -0.1510    3.2310    3.2830 o         1 MOL     -0.650629
      4 H1         -1.4030    4.5830    5.5440 hc        1 MOL      0.081504
      5 H2         -1.0700    2.9680    6.2150 hc        1 MOL      0.081504
      6 H3          0.2520    3.9290    5.5070 hc        1 MOL      0.081504
      7 N1         -2.3230    2.6220    3.7210 n         1 MOL     -0.743572
      8 C3         -2.6830    2.1310    2.4280 c3        1 MOL      0.289191
      9 C4         -3.1480    3.1780    1.4330 c         1 MOL      0.520934
     10 O2         -4.2210    3.7160    1.6210 o         1 MOL     -0.559578
     11 C5         -3.7390    0.9920    2.5320 c3        1 MOL     -0.393113
     12 C6         -4.2200    0.4400    1.2230 c         1 MOL      0.920983
     13 O3         -3.6540    0.7420    0.1360 o         1 MOL     -0.751210
     14 O4         -5.2620   -0.2620    1.2310 o         1 MOL     -0.751210
     15 H4         -2.9940    2.5680    4.4740 hn        1 MOL      0.351195
     16 H5         -1.7910    1.7180    1.9540 h1        1 MOL     -0.034521
     17 H6         -4.5920    1.5100    2.9620 hc        1 MOL      0.094733
     18 H7         -3.4390    0.1320    3.1310 hc        1 MOL      0.094733
     19 N2         -2.2210    3.5070    0.5870 n         1 MOL     -0.294386
     20 C7         -2.2330    4.6790   -0.3440 c3        1 MOL      0.012472
     21 C8         -3.2220    4.5230   -1.5070 c         1 MOL      0.508133
     22 O5         -3.6400    5.4830   -2.1580 o         1 MOL     -0.579434
     23 C9         -0.8220    4.9840   -0.9290 c3        1 MOL     -0.105961
     24 C10        -0.0220    5.6500    0.1700 c3        1 MOL      0.296378
     25 C11         0.0210    7.1630    0.1530 c3        1 MOL     -0.145456
     26 C12        -1.2250    7.8300    0.7650 c3        1 MOL      0.096608
     27 N3         -1.2040    9.2810    0.7260 n4        1 MOL     -0.402888
     28 H8         -1.4730    2.8260    0.5420 hn        1 MOL      0.273649
     29 H9         -2.5620    5.6010    0.1350 h1        1 MOL     -0.035863
     30 H10        -0.8020    5.6010   -1.8350 hc        1 MOL      0.037717
     31 H11        -0.4260    3.9930   -1.1090 hc        1 MOL      0.037717
     32 H12         1.0190    5.3580    0.0190 hc        1 MOL     -0.026172
     33 H13        -0.2540    5.2810    1.1670 hc        1 MOL     -0.026172
     34 H14         0.1300    7.3570   -0.9060 hc        1 MOL      0.030503
     35 H15         0.8820    7.5330    0.7170 hc        1 MOL      0.030503
     36 H16        -1.2630    7.4050    1.7570 hx        1 MOL      0.092703
     37 H17        -2.1300    7.5730    0.2120 hx        1 MOL      0.092703
     38 H18        -2.0130    9.7100    1.1380 hn        1 MOL      0.332925
     39 H19        -0.4210    9.6420    1.2510 hn        1 MOL      0.332925
     40 H20        -1.1460    9.7590   -0.1660 hn        1 MOL      0.332925
     41 N4         -3.5230    3.2550   -1.8510 n         1 MOL     -0.223932
     42 C13        -4.5370    3.0040   -2.8990 c3        1 MOL     -0.001804
     43 C14        -5.8100    2.1840   -2.5640 c         1 MOL      0.371212
     44 O6         -6.6040    1.8360   -3.4630 o         1 MOL     -0.536232
     45 C15        -3.7950    2.4360   -4.0820 c3        1 MOL     -0.272363
     46 C16        -3.1010    1.0780   -3.9040 c         1 MOL      0.805291
     47 O7         -2.3560    0.7070   -4.8210 o         1 MOL     -0.696634
     48 O8         -3.4120    0.3460   -2.9500 o         1 MOL     -0.696634
     49 H21        -3.0800    2.5240   -1.3260 hn        1 MOL      0.059465
     50 H22        -4.9550    3.9650   -3.1870 h1        1 MOL      0.123447
     51 H23        -3.1030    3.1720   -4.4920 hc        1 MOL      0.070829
     52 H24        -4.5530    2.2440   -4.8410 hc        1 MOL      0.070829
     53 N5         -6.0020    1.7370   -1.3780 n         1 MOL     -0.075550
     54 C17        -7.1980    1.2070   -0.8260 c3        1 MOL     -0.362614
     55 C18        -7.4830   -0.2750   -1.0730 c         1 MOL      0.614213
     56 O9         -8.5980   -0.7570   -0.9220 o         1 MOL     -0.576265
     57 H25        -5.2840    1.8080   -0.6820 hn        1 MOL      0.151505
     58 H26        -8.0360    1.7810   -1.2030 h1        1 MOL      0.145516
     59 H27        -7.2310    1.2600    0.2610 h1        1 MOL      0.145516
     60 N6         -6.4840   -1.0200   -1.6080 n         1 MOL     -0.310959
     61 C19        -6.5750   -2.5080   -1.9060 c3        1 MOL     -0.199819
     62 C20        -6.6710   -3.3740   -0.7020 c         1 MOL      0.496740
     63 O10        -7.1390   -4.5030   -0.9270 o         1 MOL     -0.553234
     64 C21        -5.3790   -2.9480   -2.8130 c3        1 MOL     -0.175085
     65 C22        -3.9950   -2.7700   -2.2690 c         1 MOL      0.580525
     66 O11        -2.9740   -2.7860   -2.9220 o         1 MOL     -0.649085
     67 O12        -3.7170   -2.6190   -1.0410 o         1 MOL     -0.649085
     68 H28        -5.7300   -0.5280   -2.0600 hn        1 MOL      0.297997
     69 H29        -7.4540   -2.6310   -2.5420 h1        1 MOL      0.148832
     70 H30        -5.4740   -2.3690   -3.7290 hc        1 MOL      0.109068
     71 H31        -5.4150   -3.9390   -3.2530 hc        1 MOL      0.109068
     72 N7         -6.3680   -2.8210    0.4310 n         1 MOL     -0.167387
     73 C23        -6.3200   -3.5960    1.6500 c3        1 MOL     -0.187259
     74 C24        -4.9900   -4.2750    1.9970 c         1 MOL      0.617509
     75 O13        -5.0510   -5.2300    2.7390 o         1 MOL     -0.574967
     76 H32        -6.1190   -1.8380    0.3900 hn        1 MOL      0.297183
     77 H33        -7.0830   -4.3800    1.6780 h1        1 MOL      0.087441
     78 H34        -6.4970   -2.8270    2.4020 h1        1 MOL      0.087441
     79 N8         -3.8410   -3.7590    1.5150 n         1 MOL     -0.266217
     80 C25        -2.4760   -4.2590    1.7530 c3        1 MOL     -0.300246
     81 C26        -1.4280   -3.0990    1.7660 c         1 MOL      0.950163
     82 O14        -1.6530   -2.0790    1.1790 o         1 MOL     -0.759012
     83 C27        -2.2100   -5.2340    0.5860 c3        1 MOL      0.470458
     84 C28        -2.3840   -6.7060    1.0610 c3        1 MOL     -0.360121
     85 O15        -3.0790   -5.1820   -0.5580 oh        1 MOL     -0.673817
     86 H35        -3.8920   -3.0720    0.7810 hn        1 MOL      0.080299
     87 H36        -2.4650   -4.7640    2.7180 h1        1 MOL      0.119297
     88 H37        -1.2130   -4.9910    0.2410 h1        1 MOL     -0.063864
     89 H38        -3.3140   -4.2670   -0.7270 ho        1 MOL      0.538182
     90 H39        -2.0240   -7.4100    0.3160 hc        1 MOL      0.086803
     91 H40        -1.8090   -6.8280    1.9830 hc        1 MOL      0.086803
     92 H41        -3.4270   -6.7730    1.3730 hc        1 MOL      0.086803
     93 N9         -0.3460   -3.2470    2.5330 n         1 MOL     -0.779655
     94 C29         0.7770   -2.3210    2.5740 c3        1 MOL      0.007180
     95 C30         1.9980   -2.9170    1.8070 c         1 MOL      0.573396
     96 O16         2.4620   -4.0040    2.0830 o         1 MOL     -0.556717
     97 C31         1.0760   -1.9500    4.0480 c3        1 MOL      0.090248
     98 C32        -0.0520   -1.0340    4.5880 c3        1 MOL      0.105392
     99 C33         2.4700   -1.3330    4.2770 c3        1 MOL     -0.198424
    100 C34        -0.0450   -0.9260    6.1600 c3        1 MOL     -0.135319
    101 H42        -0.2310   -4.1990    2.8540 hn        1 MOL      0.357707
    102 H43         0.4590   -1.3850    2.1120 h1        1 MOL      0.157418
    103 H44         1.0840   -2.8920    4.5980 hc        1 MOL      0.034555
    104 H45        -1.0360   -1.4870    4.4330 hc        1 MOL      0.003010
    105 H46        -0.0840   -0.0730    4.0780 hc        1 MOL      0.003010
    106 H47         2.4540   -0.3500    3.7980 hc        1 MOL      0.039144
    107 H48         2.7120   -1.3050    5.3350 hc        1 MOL      0.039144
    108 H49         3.3030   -1.8930    3.8460 hc        1 MOL      0.039144
    109 H50         0.7830   -0.2550    6.4160 hc        1 MOL      0.022754
    110 H51        -0.8650   -0.2630    6.4440 hc        1 MOL      0.022754
    111 H52        -0.0580   -1.9180    6.5820 hc        1 MOL      0.022754
    112 N10         2.5250   -2.1930    0.8010 n         1 MOL     -0.230097
    113 C35         3.7340   -2.5720    0.0410 c3        1 MOL      0.031109
    114 C36         5.0250   -2.1590    0.7440 c         1 MOL      0.442868
    115 O17         4.9480   -1.3080    1.6560 o         1 MOL     -0.438311
    116 C37         3.7510   -2.0880   -1.4330 c3        1 MOL      0.099833
    117 C38         2.6620   -2.8110   -2.2790 c3        1 MOL     -0.622510
    118 O18         3.3860   -0.7390   -1.5770 oh        1 MOL     -0.507452
    119 H53         2.0670   -1.3400    0.5190 hn        1 MOL      0.139550
    120 H54         3.8700   -3.6530    0.0710 h1        1 MOL      0.059790
    121 H55         4.6790   -2.2520   -1.9850 h1        1 MOL      0.093540
    122 H56         2.4410   -0.6650   -1.4140 ho        1 MOL      0.393638
    123 H57         1.6850   -2.4650   -1.9410 hc        1 MOL      0.190354
    124 H58         2.7530   -2.6130   -3.3540 hc        1 MOL      0.190354
    125 H59         2.6530   -3.8640   -2.0190 hc        1 MOL      0.190354
    126 N11         6.2270   -2.6410    0.2660 n         1 MOL     -0.412338
    127 C39         7.5120   -1.9050    0.5450 c3        1 MOL     -0.174959
    128 C40         7.4560   -0.4530    0.0660 c         1 MOL      0.314842
    129 O19         8.1980    0.3500    0.5610 o         1 MOL     -0.499967
    130 C41         8.6140   -2.6130   -0.2470 c3        1 MOL      0.323053
    131 C42         8.8110   -4.0460    0.2690 c3        1 MOL     -0.399608
    132 O20         8.3540   -2.6390   -1.6160 oh        1 MOL     -0.635749
    133 H60         6.1800   -3.3420   -0.4610 hn        1 MOL      0.279548
    134 H61         7.7240   -2.0490    1.6120 h1        1 MOL      0.185165
    135 H62         9.5420   -2.0410   -0.1670 h1        1 MOL      0.031012
    136 H63         9.2110   -2.7030   -2.0640 ho        1 MOL      0.344967
    137 H64         9.4980   -4.5100   -0.4380 hc        1 MOL      0.122192
    138 H65         9.2310   -4.0070    1.2750 hc        1 MOL      0.122192
    139 H66         7.8930   -4.6250    0.3290 hc        1 MOL      0.122192
    140 N12         6.6530   -0.1760   -0.9480 n         1 MOL      0.271215
    141 C43         6.6240    1.2320   -1.4830 c3        1 MOL      0.011181
    142 C44         5.8990    2.1780   -0.5200 c         1 MOL      0.262888
    143 O21         6.5000    3.0960    0.1130 o         1 MOL     -0.487082
    144 C45         6.0750    1.2940   -2.8930 c3        1 MOL     -0.146428
    145 C46         6.8400    0.4480   -3.9900 c3        1 MOL      0.231310
    146 C47         8.3490    0.5640   -3.8200 c3        1 MOL     -0.067972
    147 C48         9.0930   -0.2440   -4.9090 c3        1 MOL     -0.172562
    148 N13         9.0750   -1.6740   -4.6060 n4        1 MOL     -0.308188
    149 H67         6.1060   -0.9280   -1.3570 hn        1 MOL      0.009822
    150 H68         7.6480    1.6050   -1.5560 h1        1 MOL      0.005894
    151 H69         5.9530    2.3300   -3.1940 hc        1 MOL      0.067596
    152 H70         5.0200    1.0320   -2.9570 hc        1 MOL      0.067596
    153 H71         6.4660    0.7000   -4.9790 hc        1 MOL     -0.053179
    154 H72         6.6770   -0.6010   -3.7470 hc        1 MOL     -0.053179
    155 H73         8.6660    0.1820   -2.8570 hc        1 MOL      0.052889
    156 H74         8.4360    1.6410   -3.9730 hc        1 MOL      0.052889
    157 H75        10.0900    0.1940   -4.8500 hx        1 MOL      0.144730
    158 H76         8.5660   -0.0710   -5.8410 hx        1 MOL      0.144730
    159 H77         9.6050   -2.1100   -5.3510 hn        1 MOL      0.309560
    160 H78         9.5860   -1.8490   -3.7520 hn        1 MOL      0.309560
    161 H79         8.1150   -1.9670   -4.5030 hn        1 MOL      0.309560
    162 N14         4.7420    1.7730   -0.0570 n         1 MOL      0.002846
    163 C49         3.9810    2.4750    0.9540 c3        1 MOL     -0.383128
    164 C50         4.6470    2.5610    2.3280 c         1 MOL      0.519823
    165 O22         4.4200    3.5360    3.0350 o         1 MOL     -0.536510
    166 C51         2.5460    1.8220    1.0580 c3        1 MOL      0.172844
    167 C52         1.6970    1.9890   -0.2590 c3        1 MOL      0.039655
    168 C53         0.5410    0.9780   -0.3420 c         1 MOL      0.622006
    169 O23         0.8220   -0.2010   -0.3980 o         1 MOL     -0.671676
    170 O24        -0.6840    1.3590   -0.3100 o         1 MOL     -0.671676
    171 H80         4.4160    1.0060   -0.6330 hn        1 MOL      0.124009
    172 H81         3.7850    3.5220    0.7040 h1        1 MOL      0.163130
    173 H82         1.9950    2.1860    1.9230 hc        1 MOL     -0.002540
    174 H83         2.7630    0.7600    1.1710 hc        1 MOL     -0.002540
    175 H84         2.3410    1.8580   -1.1250 hc        1 MOL     -0.055901
    176 H85         1.2500    2.9860   -0.2400 hc        1 MOL     -0.055901
    177 N15         5.5450    1.5800    2.6610 n         1 MOL     -0.100882
    178 C54         6.2230    1.5080    3.9610 c3        1 MOL     -0.285378
    179 H86         5.7460    2.1970    4.6570 h1        1 MOL      0.112420
    180 H87         6.1550    0.4920    4.3510 h1        1 MOL      0.112420
    181 H88         7.2710    1.7810    3.8410 h1        1 MOL      0.112420
    182 H89         5.5330    0.8140    2.0030 hn        1 MOL      0.153973
    183 Ca1        -1.9290   -0.7220   -1.0410 Ca        1 MOL      1.747540
    184 O25        -0.7720   -3.1620   -1.6850 oh        1 MOL     -0.877013
    185 H90        -1.6650   -3.2890   -2.0060 ho        1 MOL      0.393283
    186 H91        -0.2550   -3.8360   -2.1340 ho        1 MOL      0.393283
    187 O26        -0.4950   -0.2040   -3.1680 oh        1 MOL     -0.877013
    188 H92        -1.1690    0.1440   -3.7460 ho        1 MOL      0.393283
    189 H93         0.3300    0.0980   -3.5370 ho        1 MOL      0.393283
@<TRIPOS>BOND
     1    1    2 1   
     2    1    4 1   
     3    1    5 1   
     4    1    6 1   
     5    2    3 2   
     6    2    7 1   
     7    7    8 1   
     8    7   15 1   
     9    8    9 1   
    10    8   11 1   
    11    8   16 1   
    12    9   10 2   
    13    9   19 1   
    14   11   12 1   
    15   11   17 1   
    16   11   18 1   
    17   12   13 1   
    18   12   14 1   
    19   19   20 1   
    20   19   28 1   
    21   20   21 1   
    22   20   23 1   
    23   20   29 1   
    24   21   22 2   
    25   21   41 1   
    26   23   24 1   
    27   23   30 1   
    28   23   31 1   
    29   24   25 1   
    30   24   32 1   
    31   24   33 1   
    32   25   26 1   
    33   25   34 1   
    34   25   35 1   
    35   26   27 1   
    36   26   36 1   
    37   26   37 1   
    38   27   38 1   
    39   27   39 1   
    40   27   40 1   
    41   41   42 1   
    42   41   49 1   
    43   42   43 1   
    44   42   45 1   
    45   42   50 1   
    46   43   44 2   
    47   43   53 1   
    48   45   46 1   
    49   45   51 1   
    50   45   52 1   
    51   46   47 1   
    52   46   48 1   
    53   53   54 1   
    54   53   57 1   
    55   54   55 1   
    56   54   58 1   
    57   54   59 1   
    58   55   56 2   
    59   55   60 1   
    60   60   61 1   
    61   60   68 1   
    62   61   62 1   
    63   61   64 1   
    64   61   69 1   
    65   62   63 2   
    66   62   72 1   
    67   64   65 1   
    68   64   70 1   
    69   64   71 1   
    70   65   66 1   
    71   65   67 1   
    72   72   73 1   
    73   72   76 1   
    74   73   74 1   
    75   73   77 1   
    76   73   78 1   
    77   74   75 2   
    78   74   79 1   
    79   79   80 1   
    80   79   86 1   
    81   80   81 1   
    82   80   83 1   
    83   80   87 1   
    84   81   82 2   
    85   81   93 1   
    86   83   84 1   
    87   83   85 1   
    88   83   88 1   
    89   84   90 1   
    90   84   91 1   
    91   84   92 1   
    92   85   89 1   
    93   93   94 1   
    94   93  101 1   
    95   94   95 1   
    96   94   97 1   
    97   94  102 1   
    98   95   96 2   
    99   95  112 1   
   100   97   98 1   
   101   97   99 1   
   102   97  103 1   
   103   98  100 1   
   104   98  104 1   
   105   98  105 1   
   106   99  106 1   
   107   99  107 1   
   108   99  108 1   
   109  100  109 1   
   110  100  110 1   
   111  100  111 1   
   112  112  113 1   
   113  112  119 1   
   114  113  114 1   
   115  113  116 1   
   116  113  120 1   
   117  114  115 2   
   118  114  126 1   
   119  116  117 1   
   120  116  118 1   
   121  116  121 1   
   122  117  123 1   
   123  117  124 1   
   124  117  125 1   
   125  118  122 1   
   126  126  127 1   
   127  126  133 1   
   128  127  128 1   
   129  127  130 1   
   130  127  134 1   
   131  128  129 2   
   132  128  140 1   
   133  130  131 1   
   134  130  132 1   
   135  130  135 1   
   136  131  137 1   
   137  131  138 1   
   138  131  139 1   
   139  132  136 1   
   140  140  141 1   
   141  140  149 1   
   142  141  142 1   
   143  141  144 1   
   144  141  150 1   
   145  142  143 2   
   146  142  162 1   
   147  144  145 1   
   148  144  151 1   
   149  144  152 1   
   150  145  146 1   
   151  145  153 1   
   152  145  154 1   
   153  146  147 1   
   154  146  155 1   
   155  146  156 1   
   156  147  148 1   
   157  147  157 1   
   158  147  158 1   
   159  148  159 1   
   160  148  160 1   
   161  148  161 1   
   162  162  163 1   
   163  162  171 1   
   164  163  164 1   
   165  163  166 1   
   166  163  172 1   
   167  164  165 2   
   168  164  177 1   
   169  166  167 1   
   170  166  173 1   
   171  166  174 1   
   172  167  168 1   
   173  167  175 1   
   174  167  176 1   
   175  168  169 1   
   176  168  170 1   
   177  177  178 1   
   178  177  182 1   
   179  178  179 1   
   180  178  180 1   
   181  178  181 1   
   182  184  185 1   
   183  184  186 1   
   184  187  188 1   
   185  187  189 1   
@<TRIPOS>SUBSTRUCTURE
     1 MOL         1 TEMP              0 ****  ****    0 ROOT
