@<TRIPOS>MOLECULE
MOL
  186   183     1     0     0
SMALL
resp


@<TRIPOS>ATOM
      1 C1          0.3250   -5.1660    5.3180 c3        1 MOL     -0.293755
      2 C2          0.6790   -5.1730    3.8320 c         1 MOL      0.769022
      3 O1         -0.1030   -5.6170    3.0050 o         1 MOL     -0.567133
      4 H1         -0.6960   -5.5270    5.4490 hc        1 MOL      0.067278
      5 H2          1.0120   -5.8170    5.8590 hc        1 MOL      0.067278
      6 H3          0.4050   -4.1510    5.7060 hc        1 MOL      0.067278
      7 N1          1.8910   -4.7150    3.4480 n         1 MOL     -0.782880
      8 C3          2.4320   -4.2190    2.1840 c3        1 MOL      0.589998
      9 C4          2.5700   -5.2860    1.0470 c         1 MOL      0.430098
     10 O2          3.0740   -6.3860    1.2830 o         1 MOL     -0.552089
     11 C5          3.8110   -3.5590    2.5450 c3        1 MOL     -0.361398
     12 C6          4.5010   -2.8980    1.3150 c         1 MOL      0.675238
     13 O3          5.7670   -3.0440    1.1910 o         1 MOL     -0.654134
     14 O4          3.8170   -2.4480    0.3960 o         1 MOL     -0.654134
     15 H4          2.4530   -4.4240    4.2450 hn        1 MOL      0.308446
     16 H5          1.7960   -3.3790    1.9200 h1        1 MOL     -0.091734
     17 H6          4.5270   -4.2520    3.0030 hc        1 MOL      0.059411
     18 H7          3.6060   -2.7390    3.2430 hc        1 MOL      0.059411
     19 N2          2.2600   -4.7920   -0.2040 n         1 MOL     -0.182219
     20 C7          2.2310   -5.5270   -1.4680 c3        1 MOL     -0.037003
     21 C8          3.1860   -4.9940   -2.5290 c         1 MOL      0.517330
     22 O5          3.7170   -5.7740   -3.3370 o         1 MOL     -0.584266
     23 C9          0.7790   -5.5300   -1.8900 c3        1 MOL      0.005139
     24 C10        -0.0230   -6.5000   -0.9500 c3        1 MOL      0.100796
     25 C11         0.5940   -6.0450   -3.3120 c3        1 MOL     -0.239322
     26 C12        -1.5190   -6.5910   -1.1160 c3        1 MOL     -0.228969
     27 H8          1.7930   -3.9030   -0.2550 hn        1 MOL      0.076389
     28 H9          2.5880   -6.5390   -1.2570 h1        1 MOL      0.063654
     29 H10         0.4030   -4.5120   -1.7960 hc        1 MOL      0.082024
     30 H11         0.2050   -6.1410    0.0450 hc        1 MOL     -0.007790
     31 H12         0.3680   -7.5230   -1.0060 hc        1 MOL     -0.007790
     32 H13        -0.4270   -5.9450   -3.6690 hc        1 MOL      0.055001
     33 H14         1.1890   -5.4880   -4.0380 hc        1 MOL      0.055001
     34 H15         0.7910   -7.0960   -3.5190 hc        1 MOL      0.055001
     35 H16        -1.9860   -5.6620   -0.7950 hc        1 MOL      0.053584
     36 H17        -1.9090   -6.7690   -2.1210 hc        1 MOL      0.053584
     37 H18        -1.8860   -7.3400   -0.4070 hc        1 MOL      0.053584
     38 N3          3.5010   -3.7120   -2.4570 n         1 MOL     -0.179919
     39 C13         4.2240   -2.9780   -3.4590 c3        1 MOL     -0.033539
     40 C14         5.5190   -2.1810   -3.0970 c         1 MOL      0.491498
     41 O6          6.2660   -1.6650   -3.9320 o         1 MOL     -0.572471
     42 C15         3.2500   -2.0750   -4.2900 c3        1 MOL     -0.217169
     43 C16         2.3560   -1.1010   -3.4420 c         1 MOL      0.799064
     44 O7          2.5410   -0.9090   -2.2450 o         1 MOL     -0.735001
     45 O8          1.3900   -0.6100   -4.0430 o         1 MOL     -0.735001
     46 H19         3.5220   -3.2800   -1.5460 hn        1 MOL      0.146120
     47 H20         4.6020   -3.7490   -4.1370 h1        1 MOL      0.069887
     48 H21         2.5920   -2.6970   -4.8900 hc        1 MOL      0.047219
     49 H22         3.8730   -1.4470   -4.9230 hc        1 MOL      0.047219
     50 N4          5.8410   -2.0890   -1.8190 n         1 MOL     -0.281068
     51 C17         7.2080   -1.5910   -1.4290 c3        1 MOL     -0.210825
     52 C18         7.3970   -0.0990   -1.4250 c         1 MOL      0.505483
     53 O9          8.5500    0.3310   -1.1530 o         1 MOL     -0.618521
     54 H23         5.2700   -2.4680   -1.0770 hn        1 MOL      0.203352
     55 H24         7.9180   -2.1080   -2.0670 h1        1 MOL      0.122569
     56 H25         7.2380   -1.8620   -0.3690 h1        1 MOL      0.122569
     57 N5          6.4150    0.6510   -1.8760 n         1 MOL     -0.187171
     58 C19         6.4440    2.1090   -2.0240 c3        1 MOL     -0.000134
     59 C20         6.7500    2.9240   -0.7110 c         1 MOL      0.384574
     60 O10         6.9900    4.1310   -0.6720 o         1 MOL     -0.523666
     61 C21         5.0670    2.5870   -2.5480 c3        1 MOL     -0.269564
     62 C22         3.8030    2.1830   -1.7130 c         1 MOL      0.954717
     63 O11         3.9740    1.2600   -0.8680 o         1 MOL     -0.758394
     64 O12         2.6890    2.6140   -2.0510 o         1 MOL     -0.758394
     65 H26         5.5420    0.2540   -2.1850 hn        1 MOL      0.212040
     66 H27         7.1580    2.3230   -2.8160 h1        1 MOL      0.088633
     67 H28         4.8570    2.0900   -3.4950 hc        1 MOL      0.067291
     68 H29         5.0550    3.6660   -2.7010 hc        1 MOL      0.067291
     69 N6          6.6320    2.2970    0.4670 n         1 MOL     -0.143921
     70 C23         6.7520    2.9820    1.7930 c3        1 MOL     -0.401812
     71 C24         5.5110    3.8190    2.0290 c         1 MOL      0.470605
     72 O13         5.5570    4.7410    2.8380 o         1 MOL     -0.576874
     73 H30         6.7240    1.3010    0.5120 hn        1 MOL      0.235900
     74 H31         7.5610    3.7060    1.7460 h1        1 MOL      0.173445
     75 H32         6.8170    2.1760    2.5120 h1        1 MOL      0.173445
     76 N7          4.4950    3.6500    1.2140 n         1 MOL      0.050224
     77 C25         3.2100    4.2640    1.5790 c3        1 MOL      0.315049
     78 C26         2.0440    3.2680    1.8020 c         1 MOL      0.060839
     79 O14         2.0760    2.1660    1.2420 o         1 MOL     -0.293321
     80 C27         2.8360    5.4210    0.6780 c3        1 MOL     -0.134034
     81 C28         3.9340    6.4380    0.2960 c3        1 MOL     -0.297835
     82 C29         3.3760    7.7340   -0.3410 c         1 MOL      0.722540
     83 N8          4.1700    8.6300   -0.8490 n         1 MOL     -0.815841
     84 O15         2.2000    8.0440   -0.3420 o         1 MOL     -0.568365
     85 H33         4.4940    2.8410    0.6080 hn        1 MOL     -0.139931
     86 H34         3.3370    4.6720    2.5830 h1        1 MOL     -0.059351
     87 H35         2.0280    6.0060    1.1250 hc        1 MOL      0.051318
     88 H36         2.5870    4.8350   -0.2060 hc        1 MOL      0.051318
     89 H37         4.5170    5.9000   -0.4530 hc        1 MOL      0.099723
     90 H38         4.6840    6.6580    1.0530 hc        1 MOL      0.099723
     91 H39         5.1430    8.3680   -0.8900 hn        1 MOL      0.354856
     92 H40         3.8290    9.5580   -1.0750 hn        1 MOL      0.354856
     93 N9          1.0020    3.7150    2.5470 n         1 MOL     -0.184275
     94 C30        -0.1870    2.8780    2.7290 c3        1 MOL      0.040270
     95 C31        -1.2540    3.3330    1.6550 c         1 MOL      0.256457
     96 O16        -1.8970    4.4290    1.7350 o         1 MOL     -0.546837
     97 C32        -0.7630    3.1960    4.0860 c3        1 MOL      0.302562
     98 C33        -2.0470    2.3930    4.3190 c3        1 MOL     -0.252702
     99 C34         0.3090    2.7920    5.1410 c3        1 MOL     -0.252702
    100 H41         0.9570    4.6720    2.8500 hn        1 MOL      0.269611
    101 H42         0.0110    1.8280    2.5080 h1        1 MOL      0.036557
    102 H43        -0.9930    4.2440    4.2660 hc        1 MOL     -0.032574
    103 H44        -1.9550    1.4070    3.8500 hc        1 MOL      0.042562
    104 H45        -2.3290    2.1300    5.3350 hc        1 MOL      0.042562
    105 H46        -2.9000    2.9630    3.9520 hc        1 MOL      0.042562
    106 H47         1.0680    3.5520    4.9740 hc        1 MOL      0.042562
    107 H48        -0.0600    2.7680    6.1660 hc        1 MOL      0.042562
    108 H49         0.7700    1.8280    4.9180 hc        1 MOL      0.042562
    109 N10        -1.4320    2.5160    0.6740 n         1 MOL     -0.196931
    110 C35        -2.6390    2.5990   -0.2030 c3        1 MOL      0.048998
    111 C36        -3.8390    2.1770    0.5690 c         1 MOL      0.198282
    112 O17        -3.7080    1.3580    1.4760 o         1 MOL     -0.288251
    113 C37        -2.5620    1.6820   -1.4800 c3        1 MOL     -0.299692
    114 C38        -3.8220    1.8660   -2.3620 c         1 MOL      0.620948
    115 N11        -4.1690    3.0030   -2.8460 n         1 MOL     -0.673178
    116 O18        -4.5520    0.9330   -2.6390 o         1 MOL     -0.517618
    117 H50        -0.8040    1.7430    0.5020 hn        1 MOL      0.270698
    118 H51        -2.7620    3.6280   -0.5590 h1        1 MOL      0.096916
    119 H52        -2.4310    0.6130   -1.3390 hc        1 MOL      0.121949
    120 H53        -1.7350    1.9990   -2.1090 hc        1 MOL      0.121949
    121 H54        -3.5280    3.7700   -2.9360 hn        1 MOL      0.311828
    122 H55        -4.9620    2.9570   -3.4750 hn        1 MOL      0.311828
    123 N12        -5.0340    2.4760    0.1150 n         1 MOL     -0.127014
    124 C39        -6.3130    2.0200    0.6750 c3        1 MOL      0.146610
    125 C40        -6.4980    0.4980    0.8130 c         1 MOL      0.401324
    126 O19        -7.1380    0.0890    1.7520 o         1 MOL     -0.580630
    127 C41        -7.4850    2.7620    0.0610 c3        1 MOL     -0.367860
    128 C42        -7.4770    2.8370   -1.4290 ca        1 MOL      0.097199
    129 C43        -7.2690    4.1510   -1.9140 ca        1 MOL     -0.121290
    130 C44        -7.6890    1.7650   -2.2950 ca        1 MOL     -0.121290
    131 C45        -7.2970    4.3770   -3.2610 ca        1 MOL     -0.296002
    132 C46        -7.7010    2.0100   -3.6750 ca        1 MOL     -0.296002
    133 C47        -7.4410    3.2940   -4.1540 ca        1 MOL      0.447070
    134 O20        -7.4050    3.5160   -5.4490 oh        1 MOL     -0.602704
    135 H56        -5.0440    3.1910   -0.5990 hn        1 MOL      0.130392
    136 H57        -6.3560    2.3230    1.7220 h1        1 MOL      0.037100
    137 H58        -7.5230    3.7620    0.4810 hc        1 MOL      0.121210
    138 H59        -8.4340    2.2860    0.3100 hc        1 MOL      0.121210
    139 H60        -7.0340    4.9880   -1.2740 ha        1 MOL      0.107200
    140 H61        -7.8350    0.7800   -1.8700 ha        1 MOL      0.107200
    141 H62        -7.2120    5.3900   -3.6230 ha        1 MOL      0.129830
    142 H63        -7.9530    1.2750   -4.4210 ha        1 MOL      0.129830
    143 H64        -7.3060    2.6810   -5.9200 ho        1 MOL      0.429580
    144 N13        -6.0250   -0.2850   -0.1020 n         1 MOL      0.083188
    145 C48        -6.1950   -1.7750   -0.0320 c3        1 MOL     -0.258708
    146 C49        -5.3700   -2.4570    1.1280 c         1 MOL      0.406653
    147 O21        -5.6810   -3.5270    1.5840 o         1 MOL     -0.493599
    148 C50        -5.7360   -2.2750   -1.4130 c3        1 MOL      0.033873
    149 C51        -6.7890   -2.0530   -2.5420 c3        1 MOL      0.066227
    150 C52        -8.2220   -2.4080   -2.2010 c         1 MOL      0.613276
    151 O22        -8.3780   -3.4450   -1.5640 o         1 MOL     -0.702386
    152 O23        -9.1480   -1.7530   -2.7620 o         1 MOL     -0.702386
    153 H65        -5.5370    0.1310   -0.8770 hn        1 MOL      0.101223
    154 H66        -7.2150   -2.0740    0.1770 h1        1 MOL      0.166666
    155 H67        -5.5240   -3.3420   -1.3820 hc        1 MOL      0.009369
    156 H68        -4.8070   -1.8290   -1.7660 hc        1 MOL      0.009369
    157 H69        -6.4370   -2.6560   -3.3830 hc        1 MOL     -0.055098
    158 H70        -6.7560   -0.9780   -2.7520 hc        1 MOL     -0.055098
    159 N14        -4.3040   -1.7460    1.5680 n         1 MOL     -0.213050
    160 C53        -3.5440   -2.1420    2.7420 c3        1 MOL      0.177341
    161 C54        -4.1880   -1.4830    4.0510 c         1 MOL      0.357904
    162 O24        -4.1460   -2.2000    5.0560 o         1 MOL     -0.558640
    163 C55        -2.0980   -1.7420    2.6400 c3        1 MOL     -0.100155
    164 C56        -1.3760   -2.6010    1.5500 c3        1 MOL     -0.070135
    165 C57        -0.1160   -1.8210    1.0910 c         1 MOL      0.786058
    166 O25         0.3620   -2.0950   -0.0220 o         1 MOL     -0.764910
    167 O26         0.4770   -0.9600    1.7970 o         1 MOL     -0.764910
    168 H71        -4.1400   -0.8810    1.0690 hn        1 MOL      0.111337
    169 H72        -3.6130   -3.2180    2.9040 h1        1 MOL      0.027152
    170 H73        -1.6540   -1.9490    3.6190 hc        1 MOL      0.016401
    171 H74        -2.1250   -0.6670    2.4360 hc        1 MOL      0.016401
    172 H75        -2.0980   -2.6290    0.7460 hc        1 MOL      0.032931
    173 H76        -1.1400   -3.6350    1.8220 hc        1 MOL      0.032931
    174 N15        -4.6970   -0.2680    3.9540 n         1 MOL      0.030287
    175 C58        -5.3980    0.3430    5.0320 c3        1 MOL     -0.201473
    176 H77        -6.1310   -0.3580    5.4310 h1        1 MOL      0.067915
    177 H78        -4.6930    0.6170    5.8160 h1        1 MOL      0.067915
    178 H79        -5.9080    1.2370    4.6730 h1        1 MOL      0.067915
    179 H80        -4.6020    0.2920    3.1210 hn        1 MOL      0.067974
    180 Ca1         2.3220   -0.3580    0.1130 Ca        1 MOL      1.648739
    181 O27         0.4550    0.9840   -1.1310 oh        1 MOL     -0.843082
    182 H81         0.2440    0.5610   -1.9610 ho        1 MOL      0.416017
    183 H82         0.9610    1.7630   -1.3830 ho        1 MOL      0.416017
    184 O28         4.1420    0.0900    2.1100 oh        1 MOL     -0.843082
    185 H83         5.1000   -0.0140    2.0220 ho        1 MOL      0.416017
    186 H84         4.0290    0.5610    2.9390 ho        1 MOL      0.416017
@<TRIPOS>BOND
     1    1    2 1   
     2    1    4 1   
     3    1    5 1   
     4    1    6 1   
     5    2    3 2   
     6    2    7 1   
     7    7    8 1   
     8    7   15 1   
     9    8    9 1   
    10    8   11 1   
    11    8   16 1   
    12    9   10 2   
    13    9   19 1   
    14   11   12 1   
    15   11   17 1   
    16   11   18 1   
    17   12   13 1   
    18   12   14 1   
    19   19   20 1   
    20   19   27 1   
    21   20   21 1   
    22   20   23 1   
    23   20   28 1   
    24   21   22 2   
    25   21   38 1   
    26   23   24 1   
    27   23   25 1   
    28   23   29 1   
    29   24   26 1   
    30   24   30 1   
    31   24   31 1   
    32   25   32 1   
    33   25   33 1   
    34   25   34 1   
    35   26   35 1   
    36   26   36 1   
    37   26   37 1   
    38   38   39 1   
    39   38   46 1   
    40   39   40 1   
    41   39   42 1   
    42   39   47 1   
    43   40   41 2   
    44   40   50 1   
    45   42   43 1   
    46   42   48 1   
    47   42   49 1   
    48   43   44 1   
    49   43   45 1   
    50   50   51 1   
    51   50   54 1   
    52   51   52 1   
    53   51   55 1   
    54   51   56 1   
    55   52   53 2   
    56   52   57 1   
    57   57   58 1   
    58   57   65 1   
    59   58   59 1   
    60   58   61 1   
    61   58   66 1   
    62   59   60 2   
    63   59   69 1   
    64   61   62 1   
    65   61   67 1   
    66   61   68 1   
    67   62   63 1   
    68   62   64 1   
    69   69   70 1   
    70   69   73 1   
    71   70   71 1   
    72   70   74 1   
    73   70   75 1   
    74   71   72 2   
    75   71   76 1   
    76   76   77 1   
    77   76   85 1   
    78   77   78 1   
    79   77   80 1   
    80   77   86 1   
    81   78   79 2   
    82   78   93 1   
    83   80   81 1   
    84   80   87 1   
    85   80   88 1   
    86   81   82 1   
    87   81   89 1   
    88   81   90 1   
    89   82   83 1   
    90   82   84 2   
    91   83   91 1   
    92   83   92 1   
    93   93   94 1   
    94   93  100 1   
    95   94   95 1   
    96   94   97 1   
    97   94  101 1   
    98   95   96 2   
    99   95  109 1   
   100   97   98 1   
   101   97   99 1   
   102   97  102 1   
   103   98  103 1   
   104   98  104 1   
   105   98  105 1   
   106   99  106 1   
   107   99  107 1   
   108   99  108 1   
   109  109  110 1   
   110  109  117 1   
   111  110  111 1   
   112  110  113 1   
   113  110  118 1   
   114  111  112 2   
   115  111  123 1   
   116  113  114 1   
   117  113  119 1   
   118  113  120 1   
   119  114  115 1   
   120  114  116 2   
   121  115  121 1   
   122  115  122 1   
   123  123  124 1   
   124  123  135 1   
   125  124  125 1   
   126  124  127 1   
   127  124  136 1   
   128  125  126 2   
   129  125  144 1   
   130  127  128 1   
   131  127  137 1   
   132  127  138 1   
   133  128  129 ar  
   134  128  130 ar  
   135  129  131 ar  
   136  129  139 1   
   137  130  132 ar  
   138  130  140 1   
   139  131  133 ar  
   140  131  141 1   
   141  132  133 ar  
   142  132  142 1   
   143  133  134 1   
   144  134  143 1   
   145  144  145 1   
   146  144  153 1   
   147  145  146 1   
   148  145  148 1   
   149  145  154 1   
   150  146  147 2   
   151  146  159 1   
   152  148  149 1   
   153  148  155 1   
   154  148  156 1   
   155  149  150 1   
   156  149  157 1   
   157  149  158 1   
   158  150  151 1   
   159  150  152 1   
   160  159  160 1   
   161  159  168 1   
   162  160  161 1   
   163  160  163 1   
   164  160  169 1   
   165  161  162 2   
   166  161  174 1   
   167  163  164 1   
   168  163  170 1   
   169  163  171 1   
   170  164  165 1   
   171  164  172 1   
   172  164  173 1   
   173  165  166 1   
   174  165  167 1   
   175  174  175 1   
   176  174  179 1   
   177  175  176 1   
   178  175  177 1   
   179  175  178 1   
   180  181  182 1   
   181  181  183 1   
   182  184  185 1   
   183  184  186 1   
@<TRIPOS>SUBSTRUCTURE
     1 MOL         1 TEMP              0 ****  ****    0 ROOT
