@<TRIPOS>MOLECULE
MOL
  189   185     1     0     0
SMALL
resp


@<TRIPOS>ATOM
      1 C1          0.9120    1.8370    5.3720 c3        1 MOL     -0.437958
      2 C2          0.2410    2.1550    4.0340 c         1 MOL      0.590993
      3 O1          0.8540    2.6610    3.0690 o         1 MOL     -0.586871
      4 H1          1.5110    2.6910    5.6900 hc        1 MOL      0.121069
      5 H2          0.1490    1.6300    6.1220 hc        1 MOL      0.121069
      6 H3          1.5570    0.9650    5.2580 hc        1 MOL      0.121069
      7 N1         -1.0080    1.8620    3.9000 n         1 MOL     -0.482897
      8 C3         -1.7560    1.8570    2.6920 c3        1 MOL      0.359654
      9 C4         -2.1080    3.2790    2.0970 c         1 MOL      0.213913
     10 O2         -3.1710    3.8900    2.3250 o         1 MOL     -0.480171
     11 C5         -2.9300    0.9570    2.9080 c3        1 MOL     -0.516663
     12 C6         -3.6660    0.4890    1.6340 c         1 MOL      0.901417
     13 O3         -3.2000    0.6660    0.5180 o         1 MOL     -0.707989
     14 O4         -4.7530   -0.1070    1.7550 o         1 MOL     -0.707989
     15 H4         -1.5370    1.6220    4.7300 hn        1 MOL      0.293710
     16 H5         -1.1810    1.3880    1.8890 h1        1 MOL      0.005279
     17 H6         -3.6540    1.5700    3.4410 hc        1 MOL      0.116426
     18 H7         -2.6560    0.0230    3.3950 hc        1 MOL      0.116426
     19 N2         -1.2220    3.7540    1.2380 n         1 MOL      0.022926
     20 C7         -1.1970    5.0690    0.5980 c3        1 MOL     -0.121203
     21 C8         -2.0180    5.2540   -0.6570 c         1 MOL      0.613151
     22 O5         -2.0970    6.3580   -1.1260 o         1 MOL     -0.596251
     23 C9          0.2000    5.5820    0.5290 c3        1 MOL     -0.115757
     24 C10         0.5890    6.1730    1.9000 c3        1 MOL      0.192139
     25 C11         2.0630    6.6530    1.9080 c3        1 MOL     -0.412774
     26 C12         2.2210    7.3030    3.2480 c3        1 MOL      0.000416
     27 N3          2.1900    6.3980    4.4280 n4        1 MOL     -0.461710
     28 H8         -0.5520    3.0750    0.9140 hn        1 MOL      0.238044
     29 H9         -1.7270    5.7710    1.2360 h1        1 MOL      0.057287
     30 H10         0.2520    6.3940   -0.2020 hc        1 MOL      0.040504
     31 H11         0.8930    4.7860    0.2250 hc        1 MOL      0.040504
     32 H12         0.3860    5.4530    2.6930 hc        1 MOL     -0.004883
     33 H13        -0.0180    7.0780    1.9850 hc        1 MOL     -0.004883
     34 H14         2.0870    7.3950    1.1120 hc        1 MOL      0.163578
     35 H15         2.6330    5.7310    1.7870 hc        1 MOL      0.163578
     36 H16         1.4710    8.0880    3.3820 hx        1 MOL      0.115319
     37 H17         3.1780    7.8140    3.2830 hx        1 MOL      0.115319
     38 H18         2.6510    6.9230    5.1670 hn        1 MOL      0.358887
     39 H19         1.2490    6.0850    4.6550 hn        1 MOL      0.358887
     40 H20         2.6960    5.5560    4.2060 hn        1 MOL      0.358887
     41 N4         -2.6270    4.2090   -1.1550 n         1 MOL     -0.327273
     42 C13        -3.6920    4.4050   -2.1380 c3        1 MOL      0.181222
     43 C14        -4.9740    3.6410   -1.5580 c         1 MOL      0.301684
     44 O6         -5.9550    3.5500   -2.2010 o         1 MOL     -0.464736
     45 C15        -3.2610    3.8260   -3.5100 c3        1 MOL     -0.315645
     46 C16        -2.7450    2.3640   -3.7080 c         1 MOL      0.828371
     47 O7         -2.2920    1.9430   -4.7900 o         1 MOL     -0.708390
     48 O8         -2.8560    1.5340   -2.7690 o         1 MOL     -0.708390
     49 H21        -2.3890    3.2820   -0.8530 hn        1 MOL      0.139384
     50 H22        -3.9910    5.4490   -2.2690 h1        1 MOL      0.082284
     51 H23        -2.4320    4.4530   -3.8430 hc        1 MOL      0.056286
     52 H24        -4.1200    3.9520   -4.1720 hc        1 MOL      0.056286
     53 N5         -4.9620    3.0680   -0.3280 n         1 MOL     -0.004123
     54 C17        -6.0590    2.5500    0.4190 c3        1 MOL     -0.008747
     55 C18        -6.9000    1.4170   -0.1870 c         1 MOL      0.450195
     56 O9         -8.1380    1.5450   -0.1770 o         1 MOL     -0.560315
     57 H25        -4.0420    2.9630    0.1020 hn        1 MOL     -0.114332
     58 H26        -6.7780    3.3500    0.6050 h1        1 MOL      0.046680
     59 H27        -5.6200    2.1920    1.3410 h1        1 MOL      0.046680
     60 N6         -6.2380    0.4250   -0.8420 n         1 MOL     -0.143750
     61 C19        -6.9100   -0.6940   -1.6460 c3        1 MOL     -0.163994
     62 C20        -7.1600   -1.9560   -0.7120 c         1 MOL      0.405878
     63 O10        -7.6280   -3.0690   -1.0620 o         1 MOL     -0.519573
     64 C21        -6.1210   -1.2110   -2.8920 c3        1 MOL     -0.029833
     65 C22        -4.6550   -1.5920   -2.6500 c         1 MOL      0.663706
     66 O11        -4.2680   -1.6750   -1.4310 o         1 MOL     -0.680511
     67 O12        -3.9030   -1.6170   -3.6580 o         1 MOL     -0.680511
     68 H28        -5.2330    0.3570   -0.8460 hn        1 MOL      0.149992
     69 H29        -7.8670   -0.3300   -2.0380 h1        1 MOL      0.131788
     70 H30        -6.1330   -0.4170   -3.6330 hc        1 MOL      0.042598
     71 H31        -6.7180   -1.9960   -3.3800 hc        1 MOL      0.042598
     72 N7         -6.7840   -1.7900    0.5380 n         1 MOL     -0.281008
     73 C23        -6.8360   -2.8840    1.5350 c3        1 MOL     -0.011142
     74 C24        -5.6960   -3.8630    1.5180 c         1 MOL      0.515062
     75 O13        -5.8500   -4.9810    2.0100 o         1 MOL     -0.583228
     76 H32        -6.3050   -0.9430    0.8240 hn        1 MOL      0.248639
     77 H33        -7.7900   -3.3840    1.3690 h1        1 MOL      0.061151
     78 H34        -6.9590   -2.4640    2.5350 h1        1 MOL      0.061151
     79 N8         -4.5330   -3.5020    0.8970 n         1 MOL     -0.112614
     80 C25        -3.3570   -4.2910    0.7970 c3        1 MOL     -0.122460
     81 C26        -2.0210   -3.5350    0.8570 c         1 MOL      0.667516
     82 O14        -1.8130   -2.4640    0.2170 o         1 MOL     -0.640662
     83 C27        -3.3820   -5.1930   -0.4450 c3        1 MOL      0.571601
     84 C28        -3.8720   -6.6250   -0.1170 c3        1 MOL     -0.597028
     85 O15        -4.2850   -4.6620   -1.4530 oh        1 MOL     -0.627206
     86 H35        -4.4070   -2.5120    0.7420 hn        1 MOL      0.094251
     87 H36        -3.3980   -4.9860    1.6240 h1        1 MOL     -0.001772
     88 H37        -2.3750   -5.2710   -0.8580 h1        1 MOL     -0.081194
     89 H38        -4.1020   -3.7190   -1.4640 ho        1 MOL      0.375111
     90 H39        -4.7380   -6.5240    0.5340 hc        1 MOL      0.154668
     91 H40        -4.3630   -7.0800   -0.9810 hc        1 MOL      0.154668
     92 H41        -3.0470   -7.2160    0.2830 hc        1 MOL      0.154668
     93 N9         -1.1070   -4.1470    1.5910 n         1 MOL     -0.539284
     94 C29         0.2730   -3.5650    1.7940 c3        1 MOL     -0.024357
     95 C30         1.3140   -4.0510    0.7780 c         1 MOL      0.487389
     96 O16         1.4520   -5.2150    0.5400 o         1 MOL     -0.551930
     97 C31         0.7680   -3.8330    3.2260 c3        1 MOL      0.133294
     98 C32         0.0240   -2.9720    4.2710 c3        1 MOL      0.041976
     99 C33         2.2460   -3.6970    3.4830 c3        1 MOL      0.070866
    100 C34         0.3520   -3.1540    5.7840 c3        1 MOL     -0.175589
    101 H42        -1.2210   -5.0620    2.0040 hn        1 MOL      0.337000
    102 H43         0.2920   -2.4840    1.6890 h1        1 MOL      0.074760
    103 H44         0.5920   -4.8920    3.4020 hc        1 MOL     -0.020621
    104 H45        -1.0290   -3.1410    4.0370 hc        1 MOL     -0.005419
    105 H46         0.2760   -1.9460    4.0150 hc        1 MOL     -0.005419
    106 H47         2.3790   -3.8220    4.5650 hc        1 MOL     -0.050701
    107 H48         2.8290   -4.4200    2.9050 hc        1 MOL     -0.050701
    108 H49         2.6080   -2.7470    3.0960 hc        1 MOL     -0.050701
    109 H50         1.3430   -2.7290    5.9340 hc        1 MOL      0.050923
    110 H51        -0.2810   -2.4480    6.3210 hc        1 MOL      0.050923
    111 H52         0.1910   -4.1680    6.1310 hc        1 MOL      0.050923
    112 N10         1.9710   -3.1400    0.0780 n         1 MOL      0.031920
    113 C35         3.0440   -3.4740   -0.8270 c3        1 MOL     -0.187622
    114 C36         4.4400   -3.1300   -0.2250 c         1 MOL      0.479281
    115 O17         4.5550   -2.4840    0.8060 o         1 MOL     -0.423644
    116 C37         2.8240   -2.6060   -2.1670 c3        1 MOL      0.301403
    117 C38         1.3740   -2.7460   -2.8080 c3        1 MOL     -0.595918
    118 O18         3.0640   -1.2580   -1.9070 oh        1 MOL     -0.599119
    119 H53         1.7010   -2.1770    0.0910 hn        1 MOL      0.195559
    120 H54         2.9970   -4.5300   -1.0860 h1        1 MOL      0.077363
    121 H55         3.6400   -2.9190   -2.8250 h1        1 MOL      0.012913
    122 H56         2.2210   -0.7930   -1.8890 ho        1 MOL      0.398114
    123 H57         1.1900   -3.7950   -3.0390 hc        1 MOL      0.167490
    124 H58         0.6040   -2.4240   -2.0990 hc        1 MOL      0.167490
    125 H59         1.3550   -2.1220   -3.6940 hc        1 MOL      0.167490
    126 N11         5.5120   -3.5060   -0.8540 n         1 MOL     -0.362643
    127 C39         6.8460   -3.2150   -0.4380 c3        1 MOL     -0.159130
    128 C40         7.2180   -1.7290   -0.4330 c         1 MOL      0.477467
    129 O19         8.0360   -1.2900    0.3920 o         1 MOL     -0.528658
    130 C41         7.8880   -3.7530   -1.3910 c3        1 MOL      0.225987
    131 C42         7.6990   -5.2710   -1.2420 c3        1 MOL     -0.340964
    132 O20         7.5840   -3.4490   -2.7530 oh        1 MOL     -0.645921
    133 H60         5.3960   -3.9870   -1.7380 hn        1 MOL      0.301670
    134 H61         6.9150   -3.5750    0.5880 h1        1 MOL      0.167363
    135 H62         8.8300   -3.3930   -0.9750 h1        1 MOL      0.084263
    136 H63         8.1740   -3.8840   -3.3670 ho        1 MOL      0.440275
    137 H64         7.9010   -5.6460   -0.2350 hc        1 MOL      0.098877
    138 H65         6.7960   -5.5400   -1.7980 hc        1 MOL      0.098877
    139 H66         8.5060   -5.7430   -1.7930 hc        1 MOL      0.098877
    140 N12         6.6480   -0.9210   -1.3160 n         1 MOL     -0.303790
    141 C43         6.7670    0.5490   -1.3510 c3        1 MOL      0.041265
    142 C44         5.9640    1.2670   -0.2150 c         1 MOL      0.357623
    143 O21         6.2870    2.4280    0.1730 o         1 MOL     -0.523547
    144 C45         6.2540    1.0090   -2.7260 c3        1 MOL     -0.275723
    145 C46         7.2250    2.1600   -3.1960 c3        1 MOL      0.310513
    146 C47         6.7500    2.9330   -4.3790 c3        1 MOL     -0.244358
    147 C48         5.3980    3.6100   -4.0870 c3        1 MOL      0.195599
    148 N13         5.0140    4.4590   -5.2970 n4        1 MOL     -0.515843
    149 H67         6.0690   -1.3650   -2.0160 hn        1 MOL      0.267088
    150 H68         7.7800    0.9330   -1.2810 h1        1 MOL      0.080959
    151 H69         5.1960    1.2740   -2.6910 hc        1 MOL      0.066509
    152 H70         6.2730    0.1730   -3.4250 hc        1 MOL      0.066509
    153 H71         8.1910    1.7290   -3.4500 hc        1 MOL     -0.025205
    154 H72         7.4260    2.8990   -2.4150 hc        1 MOL     -0.025205
    155 H73         6.7040    2.2290   -5.2040 hc        1 MOL      0.067998
    156 H74         7.5100    3.6830   -4.5950 hc        1 MOL      0.067998
    157 H75         5.4960    4.2650   -3.2130 hx        1 MOL      0.059423
    158 H76         4.6330    2.9480   -3.6820 hx        1 MOL      0.059423
    159 H77         4.8720    3.9070   -6.1250 hn        1 MOL      0.364933
    160 H78         4.2070    5.0310   -5.1160 hn        1 MOL      0.364933
    161 H79         5.7250    5.1570   -5.4600 hn        1 MOL      0.364933
    162 N14         4.8830    0.6470    0.1600 n         1 MOL     -0.025103
    163 C49         4.1230    1.1070    1.3170 c3        1 MOL     -0.276933
    164 C50         4.8540    0.8620    2.5950 c         1 MOL      0.529165
    165 O22         4.9810    1.7120    3.4530 o         1 MOL     -0.540015
    166 C51         2.7220    0.5000    1.2000 c3        1 MOL      0.039813
    167 C52         1.9130    1.2090    0.1220 c3        1 MOL     -0.219528
    168 C53         0.5190    0.6430   -0.0540 c         1 MOL      0.778222
    169 O23        -0.3860    1.4460   -0.3650 o         1 MOL     -0.749986
    170 O24         0.3240   -0.5820   -0.2110 o         1 MOL     -0.749986
    171 H80         4.5530   -0.0470   -0.4940 hn        1 MOL      0.196210
    172 H81         3.9960    2.1850    1.1920 h1        1 MOL      0.114240
    173 H82         2.2070    0.4720    2.1530 hc        1 MOL      0.023189
    174 H83         2.7580   -0.5420    0.8890 hc        1 MOL      0.023189
    175 H84         2.4750    1.2450   -0.8160 hc        1 MOL      0.022729
    176 H85         1.7060    2.2110    0.4970 hc        1 MOL      0.022729
    177 N15         5.5590   -0.3130    2.6170 n         1 MOL     -0.122917
    178 C54         6.4330   -0.5850    3.7680 c3        1 MOL     -0.392823
    179 H86         7.1210    0.2490    3.9060 h1        1 MOL      0.140131
    180 H87         5.8250   -0.7070    4.6650 h1        1 MOL      0.140131
    181 H88         7.0000   -1.4980    3.5860 h1        1 MOL      0.140131
    182 H89         5.4900   -0.9800    1.8570 hn        1 MOL      0.145571
    183 Ca1        -1.9810   -0.4090   -1.3950 Ca        1 MOL      1.757945
    184 O25        -1.6700   -2.6470   -2.7660 oh        1 MOL     -0.868397
    185 H90        -1.0550   -2.6200   -3.5060 ho        1 MOL      0.397031
    186 H91        -2.5310   -2.6810   -3.1800 ho        1 MOL      0.397031
    187 O26        -0.4200    0.0430   -3.5980 oh        1 MOL     -0.868397
    188 H92        -0.6020    0.7770   -4.1870 ho        1 MOL      0.397031
    189 H93         0.2280   -0.4810   -4.0620 ho        1 MOL      0.397031
@<TRIPOS>BOND
     1    1    2 1   
     2    1    4 1   
     3    1    5 1   
     4    1    6 1   
     5    2    3 2   
     6    2    7 1   
     7    7    8 1   
     8    7   15 1   
     9    8    9 1   
    10    8   11 1   
    11    8   16 1   
    12    9   10 2   
    13    9   19 1   
    14   11   12 1   
    15   11   17 1   
    16   11   18 1   
    17   12   13 1   
    18   12   14 1   
    19   19   20 1   
    20   19   28 1   
    21   20   21 1   
    22   20   23 1   
    23   20   29 1   
    24   21   22 2   
    25   21   41 1   
    26   23   24 1   
    27   23   30 1   
    28   23   31 1   
    29   24   25 1   
    30   24   32 1   
    31   24   33 1   
    32   25   26 1   
    33   25   34 1   
    34   25   35 1   
    35   26   27 1   
    36   26   36 1   
    37   26   37 1   
    38   27   38 1   
    39   27   39 1   
    40   27   40 1   
    41   41   42 1   
    42   41   49 1   
    43   42   43 1   
    44   42   45 1   
    45   42   50 1   
    46   43   44 2   
    47   43   53 1   
    48   45   46 1   
    49   45   51 1   
    50   45   52 1   
    51   46   47 1   
    52   46   48 1   
    53   53   54 1   
    54   53   57 1   
    55   54   55 1   
    56   54   58 1   
    57   54   59 1   
    58   55   56 2   
    59   55   60 1   
    60   60   61 1   
    61   60   68 1   
    62   61   62 1   
    63   61   64 1   
    64   61   69 1   
    65   62   63 2   
    66   62   72 1   
    67   64   65 1   
    68   64   70 1   
    69   64   71 1   
    70   65   66 1   
    71   65   67 1   
    72   72   73 1   
    73   72   76 1   
    74   73   74 1   
    75   73   77 1   
    76   73   78 1   
    77   74   75 2   
    78   74   79 1   
    79   79   80 1   
    80   79   86 1   
    81   80   81 1   
    82   80   83 1   
    83   80   87 1   
    84   81   82 2   
    85   81   93 1   
    86   83   84 1   
    87   83   85 1   
    88   83   88 1   
    89   84   90 1   
    90   84   91 1   
    91   84   92 1   
    92   85   89 1   
    93   93   94 1   
    94   93  101 1   
    95   94   95 1   
    96   94   97 1   
    97   94  102 1   
    98   95   96 2   
    99   95  112 1   
   100   97   98 1   
   101   97   99 1   
   102   97  103 1   
   103   98  100 1   
   104   98  104 1   
   105   98  105 1   
   106   99  106 1   
   107   99  107 1   
   108   99  108 1   
   109  100  109 1   
   110  100  110 1   
   111  100  111 1   
   112  112  113 1   
   113  112  119 1   
   114  113  114 1   
   115  113  116 1   
   116  113  120 1   
   117  114  115 2   
   118  114  126 1   
   119  116  117 1   
   120  116  118 1   
   121  116  121 1   
   122  117  123 1   
   123  117  124 1   
   124  117  125 1   
   125  118  122 1   
   126  126  127 1   
   127  126  133 1   
   128  127  128 1   
   129  127  130 1   
   130  127  134 1   
   131  128  129 2   
   132  128  140 1   
   133  130  131 1   
   134  130  132 1   
   135  130  135 1   
   136  131  137 1   
   137  131  138 1   
   138  131  139 1   
   139  132  136 1   
   140  140  141 1   
   141  140  149 1   
   142  141  142 1   
   143  141  144 1   
   144  141  150 1   
   145  142  143 2   
   146  142  162 1   
   147  144  145 1   
   148  144  151 1   
   149  144  152 1   
   150  145  146 1   
   151  145  153 1   
   152  145  154 1   
   153  146  147 1   
   154  146  155 1   
   155  146  156 1   
   156  147  148 1   
   157  147  157 1   
   158  147  158 1   
   159  148  159 1   
   160  148  160 1   
   161  148  161 1   
   162  162  163 1   
   163  162  171 1   
   164  163  164 1   
   165  163  166 1   
   166  163  172 1   
   167  164  165 2   
   168  164  177 1   
   169  166  167 1   
   170  166  173 1   
   171  166  174 1   
   172  167  168 1   
   173  167  175 1   
   174  167  176 1   
   175  168  169 1   
   176  168  170 1   
   177  177  178 1   
   178  177  182 1   
   179  178  179 1   
   180  178  180 1   
   181  178  181 1   
   182  184  185 1   
   183  184  186 1   
   184  187  188 1   
   185  187  189 1   
@<TRIPOS>SUBSTRUCTURE
     1 MOL         1 TEMP              0 ****  ****    0 ROOT
