@<TRIPOS>MOLECULE
MOL
  175   173     1     0     0
SMALL
resp


@<TRIPOS>ATOM
      1 C1         -0.2410   -3.0930    5.8850 c3        1 MOL     -0.423237
      2 C2          0.3870   -3.2680    4.5700 c         1 MOL      0.761498
      3 O1         -0.2800   -3.8210    3.7220 o         1 MOL     -0.543214
      4 H1         -0.6930   -4.0330    6.1990 hc        1 MOL      0.095053
      5 H2          0.5140   -2.7930    6.6110 hc        1 MOL      0.095053
      6 H3         -1.0100   -2.3240    5.8210 hc        1 MOL      0.095053
      7 N1          1.6420   -2.9520    4.3780 n         1 MOL     -0.605555
      8 C3          2.2090   -2.8710    3.0010 c3        1 MOL      0.103834
      9 C4          2.3980   -4.2390    2.1830 c         1 MOL      0.502453
     10 O2          2.5280   -5.3160    2.7830 o         1 MOL     -0.547386
     11 C5          3.6330   -2.3010    3.1450 c3        1 MOL     -0.140832
     12 C6          4.3410   -2.1850    1.7920 c         1 MOL      0.664477
     13 O3          3.7110   -1.7450    0.7740 o         1 MOL     -0.620472
     14 O4          5.5080   -2.4870    1.6790 o         1 MOL     -0.620472
     15 H4          2.2480   -2.7700    5.1680 hn        1 MOL      0.333057
     16 H5          1.6790   -2.1190    2.4110 h1        1 MOL      0.016784
     17 H6          4.1950   -2.8770    3.8780 hc        1 MOL     -0.000741
     18 H7          3.5150   -1.3310    3.6460 hc        1 MOL     -0.000741
     19 N2          2.2450   -4.1890    0.8360 n         1 MOL     -0.324652
     20 C7          2.5290   -5.3650    0.0580 c3        1 MOL      0.303555
     21 C8          3.5290   -5.1110   -1.1410 c         1 MOL      0.344417
     22 O5          3.7890   -6.0060   -1.9430 o         1 MOL     -0.558625
     23 C9          1.1710   -5.8840   -0.5820 c3        1 MOL     -0.353561
     24 H8          1.8470   -3.3750    0.3780 hn        1 MOL      0.205809
     25 H9          2.9980   -6.1360    0.6710 h1        1 MOL      0.002277
     26 H10         0.7760   -5.0750   -1.2010 hc        1 MOL      0.087350
     27 H11         1.4520   -6.7190   -1.2290 hc        1 MOL      0.087350
     28 H12         0.4120   -6.1140    0.1560 hc        1 MOL      0.087350
     29 N3          4.0420   -3.9080   -1.3800 n         1 MOL     -0.110316
     30 C10         4.8390   -3.5790   -2.5590 c3        1 MOL      0.027431
     31 C11         6.1200   -2.7220   -2.3110 c         1 MOL      0.434846
     32 O6          6.9040   -2.4910   -3.1900 o         1 MOL     -0.556039
     33 C12         3.9180   -2.7700   -3.4710 c3        1 MOL     -0.145591
     34 C13         3.1370   -1.6310   -2.7140 c         1 MOL      0.718276
     35 O7          1.8710   -1.6780   -2.8620 o         1 MOL     -0.693603
     36 O8          3.8060   -0.8150   -2.0340 o         1 MOL     -0.693603
     37 H13         3.9160   -3.1960   -0.6870 hn        1 MOL      0.069746
     38 H14         5.1710   -4.5150   -3.0140 h1        1 MOL      0.079006
     39 H15         3.1540   -3.4940   -3.8030 hc        1 MOL      0.028948
     40 H16         4.4550   -2.3550   -4.3240 hc        1 MOL      0.028948
     41 N4          6.3480   -2.2910   -1.0780 n         1 MOL     -0.254418
     42 C14         7.4470   -1.4620   -0.5220 c3        1 MOL     -0.060649
     43 C15         7.3360    0.0320   -0.8170 c         1 MOL      0.517378
     44 O9          8.3440    0.7130   -0.5970 o         1 MOL     -0.633943
     45 H17         5.5640   -2.4060   -0.4510 hn        1 MOL      0.088896
     46 H18         8.4330   -1.7610   -0.8870 h1        1 MOL      0.093609
     47 H19         7.5690   -1.6280    0.5490 h1        1 MOL      0.093609
     48 N5          6.2240    0.5680   -1.3350 n         1 MOL     -0.291168
     49 C16         6.2130    1.9310   -1.9430 c3        1 MOL      0.150626
     50 C17         6.1770    3.2310   -1.0520 c         1 MOL      0.418474
     51 O10         6.2500    4.3260   -1.5800 o         1 MOL     -0.509479
     52 C18         5.2200    2.0210   -3.0600 c3        1 MOL     -0.332247
     53 C19         3.8270    2.2220   -2.5490 c         1 MOL      0.674563
     54 N6          2.8700    2.0020   -3.4080 n         1 MOL     -0.640002
     55 O11         3.5440    2.0650   -1.3510 o         1 MOL     -0.643834
     56 H20         5.4610   -0.0600   -1.5440 hn        1 MOL      0.206454
     57 H21         7.1460    2.1530   -2.4520 h1        1 MOL      0.076597
     58 H22         5.1620    1.0790   -3.5970 hc        1 MOL      0.097913
     59 H23         5.5120    2.8640   -3.6830 hc        1 MOL      0.097913
     60 H24         3.0670    1.9960   -4.4000 hn        1 MOL      0.326798
     61 H25         1.9680    1.8330   -2.9920 hn        1 MOL      0.326798
     62 N7          6.0650    3.1140    0.2910 n         1 MOL     -0.296852
     63 C20         5.9170    4.2200    1.1940 c3        1 MOL     -0.122219
     64 C21         4.5230    4.8320    1.3720 c         1 MOL      0.477117
     65 O12         4.3610    5.8870    1.9390 o         1 MOL     -0.578278
     66 H26         5.9690    2.1390    0.5480 hn        1 MOL      0.269812
     67 H27         6.5920    5.0160    0.8890 h1        1 MOL      0.089926
     68 H28         6.1980    3.9710    2.2190 h1        1 MOL      0.089926
     69 N8          3.4820    4.2700    0.7370 n         1 MOL     -0.149720
     70 C22         2.1080    4.7290    0.8220 c3        1 MOL      0.026093
     71 C23         1.1940    3.5950    1.1930 c         1 MOL      0.111885
     72 O13         1.3980    2.4500    0.8140 o         1 MOL     -0.232926
     73 C24         1.5390    5.4640   -0.3990 c3        1 MOL      0.525352
     74 C25         2.1240    6.8180   -0.5620 c3        1 MOL     -0.613677
     75 O14         1.7810    4.7720   -1.6210 oh        1 MOL     -0.570737
     76 H29         3.6240    3.4200    0.2090 hn        1 MOL      0.113394
     77 H30         2.0900    5.4510    1.6390 h1        1 MOL      0.067318
     78 H31         0.4670    5.5470   -0.1960 h1        1 MOL     -0.035417
     79 H32         1.3780    3.9100   -1.5440 ho        1 MOL      0.310682
     80 H33         2.0100    7.2950    0.4140 hc        1 MOL      0.152641
     81 H34         3.1740    6.9800   -0.8120 hc        1 MOL      0.152641
     82 H35         1.5270    7.2350   -1.3700 hc        1 MOL      0.152641
     83 N9          0.0270    3.8770    1.8680 n         1 MOL     -0.289453
     84 C26        -1.1660    2.9910    1.9180 c3        1 MOL     -0.302908
     85 C27        -1.8910    3.0760    0.5730 c         1 MOL      0.640094
     86 O15        -2.5540    4.1250    0.3270 o         1 MOL     -0.598557
     87 C28        -2.1460    3.4100    3.0480 c3        1 MOL      0.200062
     88 C29        -1.3160    3.5200    4.3750 c3        1 MOL      0.094054
     89 C30        -3.2550    2.2980    3.3110 c3        1 MOL     -0.218078
     90 C31        -1.9130    4.3340    5.5400 c3        1 MOL     -0.164573
     91 H36        -0.0900    4.8040    2.2370 hn        1 MOL      0.230716
     92 H37        -0.7910    2.0040    2.1740 h1        1 MOL      0.153107
     93 H38        -2.6270    4.3730    2.8690 hc        1 MOL      0.015364
     94 H39        -0.3470    4.0170    4.2550 hc        1 MOL     -0.015598
     95 H40        -0.9770    2.5710    4.7730 hc        1 MOL     -0.015598
     96 H41        -3.8260    2.6710    4.1610 hc        1 MOL      0.033042
     97 H42        -3.8630    2.1380    2.4180 hc        1 MOL      0.033042
     98 H43        -2.7790    1.3530    3.5450 hc        1 MOL      0.033042
     99 H44        -1.9560    5.4020    5.3370 hc        1 MOL      0.027530
    100 H45        -2.9520    4.0730    5.7320 hc        1 MOL      0.027530
    101 H46        -1.2390    4.2700    6.4010 hc        1 MOL      0.027530
    102 N10        -1.8670    1.9710   -0.1810 n         1 MOL     -0.351315
    103 C32        -2.6700    1.7010   -1.3270 c3        1 MOL      0.105415
    104 C33        -4.0620    1.1460   -0.9270 c         1 MOL      0.420619
    105 O16        -4.2240    0.6690    0.2200 o         1 MOL     -0.296267
    106 C34        -1.8760    0.7720   -2.2440 c3        1 MOL     -0.305305
    107 C35        -0.4550    1.2930   -2.5740 c         1 MOL      0.799655
    108 O17         0.5440    1.0650   -1.9080 o         1 MOL     -0.694182
    109 O18        -0.3150    1.8620   -3.6340 o         1 MOL     -0.694182
    110 H47        -1.2050    1.2840    0.1490 hn        1 MOL      0.215864
    111 H48        -2.8180    2.6690   -1.8110 h1        1 MOL      0.041194
    112 H49        -2.5060    0.6380   -3.1220 hc        1 MOL      0.078817
    113 H50        -1.6710   -0.1590   -1.7280 hc        1 MOL      0.078817
    114 N11        -5.0530    1.3790   -1.7590 n         1 MOL     -0.630845
    115 C36        -6.3980    0.8860   -1.5310 c3        1 MOL      0.568731
    116 C37        -6.4370   -0.6450   -1.2960 c         1 MOL      0.213138
    117 O19        -7.2050   -1.0240   -0.4430 o         1 MOL     -0.486988
    118 C38        -7.3850    1.4790   -2.5050 c3        1 MOL     -0.310828
    119 C39        -8.7680    1.5800   -1.9580 ca        1 MOL      0.123996
    120 C40        -9.1450    2.6100   -1.1520 ca        1 MOL     -0.110298
    121 C41        -9.7460    0.6720   -2.4040 ca        1 MOL     -0.110298
    122 C42       -10.4770    2.8200   -0.7610 ca        1 MOL     -0.205651
    123 C43       -11.0320    0.7350   -1.9320 ca        1 MOL     -0.205651
    124 C44       -11.3870    1.8050   -1.0690 ca        1 MOL     -0.025753
    125 H51        -4.8170    1.6510   -2.6950 hn        1 MOL      0.320282
    126 H52        -6.6660    1.3240   -0.5640 h1        1 MOL     -0.019506
    127 H53        -7.4920    0.7930   -3.3390 hc        1 MOL      0.074796
    128 H54        -7.1250    2.4860   -2.8150 hc        1 MOL      0.074796
    129 H55        -8.4080    3.3720   -0.9550 ha        1 MOL      0.110528
    130 H56        -9.4470   -0.2140   -2.9550 ha        1 MOL      0.110528
    131 H57       -10.7180    3.7080   -0.2010 ha        1 MOL      0.135884
    132 H58       -11.7800   -0.0440   -2.0090 ha        1 MOL      0.135884
    133 H59       -12.4060    1.7990   -0.7230 ha        1 MOL      0.077571
    134 N12        -5.6570   -1.4830   -2.0250 n         1 MOL      0.046739
    135 C45        -5.7280   -2.8740   -1.7790 c3        1 MOL      0.012450
    136 C46        -5.0750   -3.2940   -0.4250 c         1 MOL      0.355880
    137 O20        -5.1890   -4.4880   -0.1620 o         1 MOL     -0.527061
    138 C47        -5.1330   -3.5440   -2.9990 c3        1 MOL     -0.246966
    139 C48        -5.4660   -2.5730   -4.1550 c3        1 MOL      0.111991
    140 C49        -5.1670   -1.2760   -3.4340 c3        1 MOL     -0.191914
    141 H60        -6.7720   -3.1570   -1.6780 h1        1 MOL      0.078790
    142 H61        -4.0430   -3.6090   -2.9530 hc        1 MOL      0.102202
    143 H62        -5.5820   -4.5170   -3.1810 hc        1 MOL      0.102202
    144 H63        -4.8510   -2.7390   -5.0460 hc        1 MOL      0.004011
    145 H64        -6.4920   -2.6030   -4.4970 hc        1 MOL      0.004011
    146 H65        -4.0790   -1.2360   -3.3070 h1        1 MOL      0.074445
    147 H66        -5.5450   -0.4030   -3.9680 h1        1 MOL      0.074445
    148 N13        -4.4420   -2.4040    0.3240 n         1 MOL     -0.021962
    149 C50        -3.9190   -2.6590    1.6380 c3        1 MOL     -0.026377
    150 C51        -4.9150   -2.1120    2.6950 c         1 MOL      0.422186
    151 O21        -5.2730   -2.8230    3.6350 o         1 MOL     -0.553300
    152 C52        -2.5300   -1.9930    1.7110 c3        1 MOL      0.266983
    153 C53        -1.6530   -2.2160    0.4510 c3        1 MOL     -0.152565
    154 C54        -0.3760   -1.4060    0.4930 c         1 MOL      0.561499
    155 O22         0.6290   -1.9780    0.1130 o         1 MOL     -0.655322
    156 O23        -0.2980   -0.2090    0.8070 o         1 MOL     -0.655322
    157 H67        -4.5650   -1.4210    0.1100 hn        1 MOL     -0.108031
    158 H68        -3.7480   -3.7130    1.8620 h1        1 MOL      0.075072
    159 H69        -2.0680   -2.3900    2.6230 hc        1 MOL     -0.076387
    160 H70        -2.6760   -0.9220    1.8370 hc        1 MOL     -0.076387
    161 H71        -2.1650   -1.9040   -0.4590 hc        1 MOL      0.063093
    162 H72        -1.4060   -3.2750    0.4420 hc        1 MOL      0.063093
    163 N14        -5.4760   -0.9490    2.4210 n         1 MOL     -0.072673
    164 C55        -6.4050   -0.3710    3.3550 c3        1 MOL     -0.133611
    165 H73        -6.5170   -1.0350    4.2130 h1        1 MOL      0.058862
    166 H74        -6.0300    0.5950    3.6910 h1        1 MOL      0.058862
    167 H75        -7.3720   -0.2370    2.8710 h1        1 MOL      0.058862
    168 H76        -5.2440   -0.4340    1.5880 hn        1 MOL      0.138706
    169 Ca1         2.1800   -0.0010   -0.2740 Ca        1 MOL      1.699019
    170 O24         3.9520    1.1240    1.6990 oh        1 MOL     -0.869410
    171 H77         4.5680    1.3500    2.3880 ho        1 MOL      0.419021
    172 H78         3.1210    0.9910    2.1600 ho        1 MOL      0.419021
    173 O25         1.5530    0.3240    2.9300 oh        1 MOL     -0.869410
    174 H79         1.7270    0.1720    3.8620 ho        1 MOL      0.419021
    175 H80         0.6580    0.0090    2.7990 ho        1 MOL      0.419021
@<TRIPOS>BOND
     1    1    2 1   
     2    1    4 1   
     3    1    5 1   
     4    1    6 1   
     5    2    3 2   
     6    2    7 1   
     7    7    8 1   
     8    7   15 1   
     9    8    9 1   
    10    8   11 1   
    11    8   16 1   
    12    9   10 2   
    13    9   19 1   
    14   11   12 1   
    15   11   17 1   
    16   11   18 1   
    17   12   13 1   
    18   12   14 1   
    19   19   20 1   
    20   19   24 1   
    21   20   21 1   
    22   20   23 1   
    23   20   25 1   
    24   21   22 2   
    25   21   29 1   
    26   23   26 1   
    27   23   27 1   
    28   23   28 1   
    29   29   30 1   
    30   29   37 1   
    31   30   31 1   
    32   30   33 1   
    33   30   38 1   
    34   31   32 2   
    35   31   41 1   
    36   33   34 1   
    37   33   39 1   
    38   33   40 1   
    39   34   35 1   
    40   34   36 1   
    41   41   42 1   
    42   41   45 1   
    43   42   43 1   
    44   42   46 1   
    45   42   47 1   
    46   43   44 2   
    47   43   48 1   
    48   48   49 1   
    49   48   56 1   
    50   49   50 1   
    51   49   52 1   
    52   49   57 1   
    53   50   51 2   
    54   50   62 1   
    55   52   53 1   
    56   52   58 1   
    57   52   59 1   
    58   53   54 1   
    59   53   55 2   
    60   54   60 1   
    61   54   61 1   
    62   62   63 1   
    63   62   66 1   
    64   63   64 1   
    65   63   67 1   
    66   63   68 1   
    67   64   65 2   
    68   64   69 1   
    69   69   70 1   
    70   69   76 1   
    71   70   71 1   
    72   70   73 1   
    73   70   77 1   
    74   71   72 2   
    75   71   83 1   
    76   73   74 1   
    77   73   75 1   
    78   73   78 1   
    79   74   80 1   
    80   74   81 1   
    81   74   82 1   
    82   75   79 1   
    83   83   84 1   
    84   83   91 1   
    85   84   85 1   
    86   84   87 1   
    87   84   92 1   
    88   85   86 2   
    89   85  102 1   
    90   87   88 1   
    91   87   89 1   
    92   87   93 1   
    93   88   90 1   
    94   88   94 1   
    95   88   95 1   
    96   89   96 1   
    97   89   97 1   
    98   89   98 1   
    99   90   99 1   
   100   90  100 1   
   101   90  101 1   
   102  102  103 1   
   103  102  110 1   
   104  103  104 1   
   105  103  106 1   
   106  103  111 1   
   107  104  105 2   
   108  104  114 1   
   109  106  107 1   
   110  106  112 1   
   111  106  113 1   
   112  107  108 1   
   113  107  109 1   
   114  114  115 1   
   115  114  125 1   
   116  115  116 1   
   117  115  118 1   
   118  115  126 1   
   119  116  117 2   
   120  116  134 1   
   121  118  119 1   
   122  118  127 1   
   123  118  128 1   
   124  119  120 ar  
   125  119  121 ar  
   126  120  122 ar  
   127  120  129 1   
   128  121  123 ar  
   129  121  130 1   
   130  122  124 ar  
   131  122  131 1   
   132  123  124 ar  
   133  123  132 1   
   134  124  133 1   
   135  134  135 1   
   136  134  140 1   
   137  135  136 1   
   138  135  138 1   
   139  135  141 1   
   140  136  137 2   
   141  136  148 1   
   142  138  139 1   
   143  138  142 1   
   144  138  143 1   
   145  139  140 1   
   146  139  144 1   
   147  139  145 1   
   148  140  146 1   
   149  140  147 1   
   150  148  149 1   
   151  148  157 1   
   152  149  150 1   
   153  149  152 1   
   154  149  158 1   
   155  150  151 2   
   156  150  163 1   
   157  152  153 1   
   158  152  159 1   
   159  152  160 1   
   160  153  154 1   
   161  153  161 1   
   162  153  162 1   
   163  154  155 1   
   164  154  156 1   
   165  163  164 1   
   166  163  168 1   
   167  164  165 1   
   168  164  166 1   
   169  164  167 1   
   170  170  171 1   
   171  170  172 1   
   172  173  174 1   
   173  173  175 1   
@<TRIPOS>SUBSTRUCTURE
     1 MOL         1 TEMP              0 ****  ****    0 ROOT
