@<TRIPOS>MOLECULE
MOL
  175   173     1     0     0
SMALL
resp


@<TRIPOS>ATOM
      1 C1          0.9990    3.8110    5.3840 c3        1 MOL     -0.400981
      2 C2          0.4030    3.9160    3.9780 c         1 MOL      0.708591
      3 O1          1.0760    4.1970    3.0130 o         1 MOL     -0.549392
      4 H1          1.4700    4.7580    5.6490 hc        1 MOL      0.093522
      5 H2          0.2070    3.5880    6.0990 hc        1 MOL      0.093522
      6 H3          1.7440    3.0160    5.4060 hc        1 MOL      0.093522
      7 N1         -0.9110    3.6720    3.9330 n         1 MOL     -0.596426
      8 C3         -1.6860    3.4610    2.6670 c3        1 MOL      0.090871
      9 C4         -1.7330    4.6440    1.7920 c         1 MOL      0.648617
     10 O2         -1.9530    5.7410    2.3440 o         1 MOL     -0.576832
     11 C5         -3.0740    2.9940    3.1300 c3        1 MOL     -0.481265
     12 C6         -3.8380    2.5580    1.9360 c         1 MOL      0.880645
     13 O3         -3.3840    2.2280    0.8030 o         1 MOL     -0.704189
     14 O4         -5.0740    2.4420    2.1290 o         1 MOL     -0.704189
     15 H4         -1.3600    3.4660    4.8120 hn        1 MOL      0.330705
     16 H5         -1.2020    2.6360    2.1420 h1        1 MOL      0.114177
     17 H6         -3.5260    3.8050    3.7120 hc        1 MOL      0.121431
     18 H7         -2.9820    2.1340    3.7900 hc        1 MOL      0.121431
     19 N2         -1.6120    4.5040    0.4490 n         1 MOL     -0.643185
     20 C7         -1.8810    5.5350   -0.5290 c3        1 MOL      0.418068
     21 C8         -2.9820    5.2580   -1.5370 c         1 MOL      0.356451
     22 O5         -3.1650    6.0260   -2.4690 o         1 MOL     -0.547436
     23 C9         -0.5890    5.9020   -1.2950 c3        1 MOL     -0.352755
     24 H8         -1.2410    3.6180    0.1170 hn        1 MOL      0.337699
     25 H9         -2.2470    6.3820    0.0520 h1        1 MOL     -0.009587
     26 H10        -0.4990    5.0630   -1.9850 hc        1 MOL      0.085311
     27 H11        -0.6550    6.8940   -1.7430 hc        1 MOL      0.085311
     28 H12         0.3020    5.8230   -0.6640 hc        1 MOL      0.085311
     29 N3         -3.6690    4.1070   -1.4070 n         1 MOL     -0.287255
     30 C10        -4.6480    3.7030   -2.3940 c3        1 MOL      0.137843
     31 C11        -6.0020    3.0950   -1.9370 c         1 MOL      0.292787
     32 O6         -7.0500    3.3420   -2.5310 o         1 MOL     -0.524620
     33 C12        -3.9740    2.7590   -3.3910 c3        1 MOL     -0.037291
     34 C13        -3.2060    1.6510   -2.7000 c         1 MOL      0.634451
     35 O7         -2.0060    1.4730   -2.9320 o         1 MOL     -0.683721
     36 O8         -3.7800    0.8620   -1.9250 o         1 MOL     -0.683721
     37 H13        -3.4310    3.5040   -0.6390 hn        1 MOL      0.198432
     38 H14        -4.8690    4.5730   -3.0230 h1        1 MOL      0.046716
     39 H15        -3.3030    3.1970   -4.1240 hc        1 MOL      0.005266
     40 H16        -4.8130    2.3670   -3.9620 hc        1 MOL      0.005266
     41 N4         -5.9790    2.3670   -0.7930 n         1 MOL     -0.048452
     42 C14        -7.1250    1.6270   -0.2550 c3        1 MOL     -0.036048
     43 C15        -7.3390    0.1860   -0.8340 c         1 MOL      0.309867
     44 O9         -8.4950   -0.2170   -1.0280 o         1 MOL     -0.579534
     45 H17        -5.1540    2.4180   -0.2080 hn        1 MOL      0.027350
     46 H18        -8.0280    2.2360   -0.2980 h1        1 MOL      0.063364
     47 H19        -6.9680    1.5110    0.8220 h1        1 MOL      0.063364
     48 N5         -6.2710   -0.4640   -1.3220 n         1 MOL      0.064458
     49 C16        -6.4300   -1.7420   -2.0280 c3        1 MOL     -0.019790
     50 C17        -6.6970   -2.9770   -1.1990 c         1 MOL      0.391143
     51 O10        -6.8600   -4.0280   -1.7880 o         1 MOL     -0.500461
     52 C18        -5.2740   -1.8350   -2.9630 c3        1 MOL     -0.100842
     53 C19        -3.8900   -2.0190   -2.4720 c         1 MOL      0.564533
     54 N6         -2.9820   -2.2450   -3.4150 n         1 MOL     -0.646500
     55 O11        -3.5790   -2.0520   -1.3190 o         1 MOL     -0.457153
     56 H20        -5.4190    0.0630   -1.4500 hn        1 MOL      0.102058
     57 H21        -7.2560   -1.5510   -2.7070 h1        1 MOL      0.087895
     58 H22        -5.3560   -0.9230   -3.5490 hc        1 MOL      0.021234
     59 H23        -5.4400   -2.7140   -3.5890 hc        1 MOL      0.021234
     60 H24        -3.2120   -2.2180   -4.3990 hn        1 MOL      0.317233
     61 H25        -2.0000   -2.3660   -3.2080 hn        1 MOL      0.317233
     62 N7         -6.6390   -2.8390    0.1440 n         1 MOL     -0.286212
     63 C20        -6.6270   -3.9800    1.0760 c3        1 MOL     -0.030917
     64 C21        -5.2550   -4.4940    1.5980 c         1 MOL      0.344784
     65 O12        -5.1830   -5.4780    2.3710 o         1 MOL     -0.548434
     66 H26        -6.6380   -1.9280    0.5740 hn        1 MOL      0.207928
     67 H27        -7.2740   -4.7720    0.6960 h1        1 MOL      0.075547
     68 H28        -7.2330   -3.6380    1.9070 h1        1 MOL      0.075547
     69 N8         -4.1620   -3.9860    1.0530 n         1 MOL     -0.023741
     70 C22        -2.8110   -4.5610    1.2000 c3        1 MOL     -0.417198
     71 C23        -1.7780   -3.3970    1.3410 c         1 MOL      0.713316
     72 O13        -1.9930   -2.3780    0.7130 o         1 MOL     -0.590382
     73 C24        -2.3690   -5.4540    0.0790 c3        1 MOL      0.526142
     74 C25        -3.2550   -6.6860   -0.0330 c3        1 MOL     -0.634142
     75 O14        -2.4960   -4.7630   -1.2180 oh        1 MOL     -0.603172
     76 H29        -4.2300   -3.0530    0.6780 hn        1 MOL      0.155802
     77 H30        -2.7500   -5.1090    2.1350 h1        1 MOL      0.147058
     78 H31        -1.3030   -5.6480    0.1540 h1        1 MOL     -0.014229
     79 H32        -2.4020   -3.8270   -1.0650 ho        1 MOL      0.341954
     80 H33        -3.3270   -7.1160    0.9600 hc        1 MOL      0.172971
     81 H34        -4.2350   -6.3630   -0.3800 hc        1 MOL      0.172971
     82 H35        -2.8730   -7.3670   -0.8020 hc        1 MOL      0.172971
     83 N9         -0.7340   -3.6410    2.1340 n         1 MOL     -0.611990
     84 C26         0.6050   -2.9180    2.0420 c3        1 MOL     -0.150988
     85 C27         1.2150   -3.2430    0.6670 c         1 MOL      0.642573
     86 O15         1.3770   -4.4010    0.3440 o         1 MOL     -0.591718
     87 C28         1.4910   -3.3550    3.1940 c3        1 MOL      0.495563
     88 C29         0.9220   -2.9620    4.6200 c3        1 MOL     -0.007631
     89 C30         2.9170   -2.7380    2.9790 c3        1 MOL     -0.457606
     90 C31         1.5890   -3.6540    5.8170 c3        1 MOL     -0.124903
     91 H36        -0.6470   -4.5320    2.6000 hn        1 MOL      0.302284
     92 H37         0.3700   -1.8490    2.0800 h1        1 MOL      0.046928
     93 H38         1.7080   -4.4180    3.1410 hc        1 MOL     -0.082641
     94 H39        -0.1330   -3.2210    4.5220 hc        1 MOL     -0.011383
     95 H40         1.0720   -1.8850    4.6120 hc        1 MOL     -0.011383
     96 H41         2.9570   -1.7770    2.4670 hc        1 MOL      0.085506
     97 H42         3.3740   -2.4670    3.9380 hc        1 MOL      0.085506
     98 H43         3.5630   -3.5170    2.5880 hc        1 MOL      0.085506
     99 H44         2.6810   -3.6430    5.7150 hc        1 MOL      0.025093
    100 H45         1.3030   -3.2010    6.7640 hc        1 MOL      0.025093
    101 H46         1.1640   -4.6590    5.9000 hc        1 MOL      0.025093
    102 N10         1.6760   -2.1980    0.0280 n         1 MOL     -0.391012
    103 C32         2.4390   -2.2020   -1.1610 c3        1 MOL      0.179661
    104 C33         3.7770   -1.5650   -0.8440 c         1 MOL      0.249676
    105 O16         4.0240   -0.9730    0.1510 o         1 MOL     -0.282256
    106 C34         1.8230   -1.3600   -2.3120 c3        1 MOL     -0.306392
    107 C35         0.3160   -1.6140   -2.5960 c         1 MOL      0.817497
    108 O17        -0.0300   -2.2110   -3.6340 o         1 MOL     -0.714418
    109 O18        -0.4330   -1.1980   -1.8100 o         1 MOL     -0.714418
    110 H47         1.5740   -1.3090    0.4970 hn        1 MOL      0.367922
    111 H48         2.6120   -3.1860   -1.5940 h1        1 MOL      0.052681
    112 H49         2.4140   -1.5170   -3.2120 hc        1 MOL      0.060710
    113 H50         1.8380   -0.3340   -1.9420 hc        1 MOL      0.060710
    114 N11         4.8200   -1.7290   -1.6860 n         1 MOL     -0.490880
    115 C36         6.2210   -1.3770   -1.2730 c3        1 MOL      0.215991
    116 C37         6.6450    0.0670   -1.1120 c         1 MOL      0.203893
    117 O19         7.3830    0.3040   -0.1940 o         1 MOL     -0.426858
    118 C38         7.2070   -2.0810   -2.1520 c3        1 MOL     -0.412516
    119 C39         8.7490   -1.8250   -2.0230 ca        1 MOL      0.175533
    120 C40         9.4850   -1.2060   -3.0710 ca        1 MOL     -0.113638
    121 C41         9.5020   -2.4990   -0.9800 ca        1 MOL     -0.113638
    122 C42        10.9120   -1.2330   -3.0580 ca        1 MOL     -0.216809
    123 C43        10.9150   -2.5190   -1.0060 ca        1 MOL     -0.216809
    124 C44        11.5850   -1.8370   -1.9990 ca        1 MOL      0.004431
    125 H51         4.6900   -2.2270   -2.5530 hn        1 MOL      0.324181
    126 H52         6.3860   -1.8650   -0.3170 h1        1 MOL      0.156735
    127 H53         6.9260   -1.8490   -3.1820 hc        1 MOL      0.107755
    128 H54         7.1020   -3.1580   -2.0160 hc        1 MOL      0.107755
    129 H55         8.9000   -0.7790   -3.8660 ha        1 MOL      0.112778
    130 H56         9.0270   -2.9660   -0.1360 ha        1 MOL      0.112778
    131 H57        11.4950   -0.6750   -3.7710 ha        1 MOL      0.134694
    132 H58        11.4020   -2.9640   -0.1510 ha        1 MOL      0.134694
    133 H59        12.6620   -1.8950   -2.0100 ha        1 MOL      0.069790
    134 N12         6.1890    1.1130   -1.8960 n         1 MOL      0.004708
    135 C45         6.4910    2.5020   -1.4390 c3        1 MOL     -0.151743
    136 C46         5.9610    2.7700   -0.0190 c         1 MOL      0.479045
    137 O20         6.4230    3.6640    0.6540 o         1 MOL     -0.518241
    138 C47         5.7110    3.3740   -2.4540 c3        1 MOL     -0.081134
    139 C48         4.7750    2.4870   -3.2680 c3        1 MOL     -0.062775
    140 C49         5.1980    1.0540   -2.9480 c3        1 MOL      0.056639
    141 H60         7.5830    2.5500   -1.4820 h1        1 MOL      0.103425
    142 H61         5.2780    4.3210   -2.1360 hc        1 MOL      0.059300
    143 H62         6.5180    3.6140   -3.1460 hc        1 MOL      0.059300
    144 H63         3.7230    2.6780   -3.0460 hc        1 MOL      0.041503
    145 H64         5.0620    2.6910   -4.2980 hc        1 MOL      0.041503
    146 H65         4.3790    0.3730   -2.7220 h1        1 MOL      0.004416
    147 H66         5.6730    0.6210   -3.8270 h1        1 MOL      0.004416
    148 N13         4.8740    2.0560    0.3600 n         1 MOL     -0.151053
    149 C50         4.2250    2.1650    1.7180 c3        1 MOL     -0.246737
    150 C51         5.0330    1.3250    2.6760 c         1 MOL      0.558012
    151 O21         5.1870    1.6590    3.8460 o         1 MOL     -0.592094
    152 C52         2.8070    1.5470    1.6730 c3        1 MOL      0.099640
    153 C53         2.0110    2.0050    0.4710 c3        1 MOL     -0.281448
    154 C54         0.6150    1.4200    0.3940 c         1 MOL      0.612352
    155 O22        -0.3220    1.9220   -0.3140 o         1 MOL     -0.684035
    156 O23         0.3740    0.3990    1.0170 o         1 MOL     -0.684035
    157 H67         4.3850    1.4630   -0.2890 hn        1 MOL      0.189966
    158 H68         4.1200    3.2330    1.9080 h1        1 MOL      0.156802
    159 H69         2.2580    1.8200    2.5710 hc        1 MOL      0.010863
    160 H70         2.8670    0.4600    1.6610 hc        1 MOL      0.010863
    161 H71         2.4480    1.7220   -0.4900 hc        1 MOL      0.108407
    162 H72         1.9140    3.0920    0.4730 hc        1 MOL      0.108407
    163 N14         5.6200    0.2180    2.2320 n         1 MOL      0.013262
    164 C55         6.5840   -0.6200    2.9860 c3        1 MOL     -0.266668
    165 H73         7.4560   -0.0220    3.2490 h1        1 MOL      0.097590
    166 H74         6.1110   -0.9900    3.8960 h1        1 MOL      0.097590
    167 H75         6.8950   -1.4630    2.3690 h1        1 MOL      0.097590
    168 H76         5.5090    0.1100    1.2370 hn        1 MOL     -0.086336
    169 Ca1        -1.9730    0.0380   -0.2430 Ca        1 MOL      1.697823
    170 O24        -4.5000   -0.4610    1.2340 oh        1 MOL     -0.727485
    171 H77        -5.0390    0.3290    1.1680 ho        1 MOL      0.351219
    172 H78        -4.8410   -0.9240    2.0030 ho        1 MOL      0.351219
    173 O25        -1.6560    0.2410    2.7940 oh        1 MOL     -0.727485
    174 H79        -1.6040    0.3320    3.7530 ho        1 MOL      0.351219
    175 H80        -0.7440    0.2210    2.5130 ho        1 MOL      0.351219
@<TRIPOS>BOND
     1    1    2 1   
     2    1    4 1   
     3    1    5 1   
     4    1    6 1   
     5    2    3 2   
     6    2    7 1   
     7    7    8 1   
     8    7   15 1   
     9    8    9 1   
    10    8   11 1   
    11    8   16 1   
    12    9   10 2   
    13    9   19 1   
    14   11   12 1   
    15   11   17 1   
    16   11   18 1   
    17   12   13 1   
    18   12   14 1   
    19   19   20 1   
    20   19   24 1   
    21   20   21 1   
    22   20   23 1   
    23   20   25 1   
    24   21   22 2   
    25   21   29 1   
    26   23   26 1   
    27   23   27 1   
    28   23   28 1   
    29   29   30 1   
    30   29   37 1   
    31   30   31 1   
    32   30   33 1   
    33   30   38 1   
    34   31   32 2   
    35   31   41 1   
    36   33   34 1   
    37   33   39 1   
    38   33   40 1   
    39   34   35 1   
    40   34   36 1   
    41   41   42 1   
    42   41   45 1   
    43   42   43 1   
    44   42   46 1   
    45   42   47 1   
    46   43   44 2   
    47   43   48 1   
    48   48   49 1   
    49   48   56 1   
    50   49   50 1   
    51   49   52 1   
    52   49   57 1   
    53   50   51 2   
    54   50   62 1   
    55   52   53 1   
    56   52   58 1   
    57   52   59 1   
    58   53   54 1   
    59   53   55 2   
    60   54   60 1   
    61   54   61 1   
    62   62   63 1   
    63   62   66 1   
    64   63   64 1   
    65   63   67 1   
    66   63   68 1   
    67   64   65 2   
    68   64   69 1   
    69   69   70 1   
    70   69   76 1   
    71   70   71 1   
    72   70   73 1   
    73   70   77 1   
    74   71   72 2   
    75   71   83 1   
    76   73   74 1   
    77   73   75 1   
    78   73   78 1   
    79   74   80 1   
    80   74   81 1   
    81   74   82 1   
    82   75   79 1   
    83   83   84 1   
    84   83   91 1   
    85   84   85 1   
    86   84   87 1   
    87   84   92 1   
    88   85   86 2   
    89   85  102 1   
    90   87   88 1   
    91   87   89 1   
    92   87   93 1   
    93   88   90 1   
    94   88   94 1   
    95   88   95 1   
    96   89   96 1   
    97   89   97 1   
    98   89   98 1   
    99   90   99 1   
   100   90  100 1   
   101   90  101 1   
   102  102  103 1   
   103  102  110 1   
   104  103  104 1   
   105  103  106 1   
   106  103  111 1   
   107  104  105 2   
   108  104  114 1   
   109  106  107 1   
   110  106  112 1   
   111  106  113 1   
   112  107  108 1   
   113  107  109 1   
   114  114  115 1   
   115  114  125 1   
   116  115  116 1   
   117  115  118 1   
   118  115  126 1   
   119  116  117 2   
   120  116  134 1   
   121  118  119 1   
   122  118  127 1   
   123  118  128 1   
   124  119  120 ar  
   125  119  121 ar  
   126  120  122 ar  
   127  120  129 1   
   128  121  123 ar  
   129  121  130 1   
   130  122  124 ar  
   131  122  131 1   
   132  123  124 ar  
   133  123  132 1   
   134  124  133 1   
   135  134  135 1   
   136  134  140 1   
   137  135  136 1   
   138  135  138 1   
   139  135  141 1   
   140  136  137 2   
   141  136  148 1   
   142  138  139 1   
   143  138  142 1   
   144  138  143 1   
   145  139  140 1   
   146  139  144 1   
   147  139  145 1   
   148  140  146 1   
   149  140  147 1   
   150  148  149 1   
   151  148  157 1   
   152  149  150 1   
   153  149  152 1   
   154  149  158 1   
   155  150  151 2   
   156  150  163 1   
   157  152  153 1   
   158  152  159 1   
   159  152  160 1   
   160  153  154 1   
   161  153  161 1   
   162  153  162 1   
   163  154  155 1   
   164  154  156 1   
   165  163  164 1   
   166  163  168 1   
   167  164  165 1   
   168  164  166 1   
   169  164  167 1   
   170  170  171 1   
   171  170  172 1   
   172  173  174 1   
   173  173  175 1   
@<TRIPOS>SUBSTRUCTURE
     1 MOL         1 TEMP              0 ****  ****    0 ROOT
