@<TRIPOS>MOLECULE
MOL
  189   185     1     0     0
SMALL
resp


@<TRIPOS>ATOM
      1 C1         -0.1430    2.8730    5.3800 c3        1 MOL     -0.443953
      2 C2         -0.3790    2.0820    4.0390 c         1 MOL      0.632832
      3 O1          0.4250    2.3570    3.1280 o         1 MOL     -0.530328
      4 H1         -0.3400    3.9330    5.2160 hc        1 MOL      0.113120
      5 H2         -0.8160    2.4950    6.1500 hc        1 MOL      0.113120
      6 H3          0.8900    2.7420    5.7040 hc        1 MOL      0.113120
      7 N1         -1.4710    1.3570    3.8760 n         1 MOL     -0.419519
      8 C3         -2.1550    1.2800    2.5500 c3        1 MOL      0.073799
      9 C4         -2.6220    2.6970    2.1550 c         1 MOL      0.289951
     10 O2         -3.6380    3.2910    2.6060 o         1 MOL     -0.555404
     11 C5         -3.3060    0.2250    2.5680 c3        1 MOL     -0.232361
     12 C6         -4.1060    0.2590    1.2040 c         1 MOL      0.639442
     13 O3         -3.4330    0.7730    0.2440 o         1 MOL     -0.583579
     14 O4         -5.3370    0.0070    1.1630 o         1 MOL     -0.583579
     15 H4         -2.0670    1.1410    4.6660 hn        1 MOL      0.303569
     16 H5         -1.4260    1.0140    1.7800 h1        1 MOL     -0.027025
     17 H6         -4.0290    0.3900    3.3700 hc        1 MOL      0.066902
     18 H7         -2.8990   -0.7720    2.6840 hc        1 MOL      0.066902
     19 N2         -1.9800    3.2050    1.1460 n         1 MOL      0.112926
     20 C7         -2.2760    4.5460    0.5160 c3        1 MOL     -0.184752
     21 C8         -3.3410    4.5280   -0.5340 c         1 MOL      0.711033
     22 O5         -3.6180    5.6000   -1.0500 o         1 MOL     -0.586079
     23 C9         -0.9990    5.1710   -0.0440 c3        1 MOL      0.012962
     24 C10         0.2560    5.3080    0.7980 c3        1 MOL     -0.034079
     25 C11        -0.0790    6.0060    2.0760 c3        1 MOL     -0.051684
     26 C12         1.0630    5.9780    3.0800 c3        1 MOL      0.190133
     27 N3          0.8890    6.9360    4.2320 n4        1 MOL     -0.570124
     28 H8         -1.2890    2.5550    0.7990 hn        1 MOL      0.197880
     29 H9         -2.6940    5.2330    1.2450 h1        1 MOL      0.058259
     30 H10        -1.2180    6.1240   -0.5180 hc        1 MOL      0.033206
     31 H11        -0.6650    4.5430   -0.8710 hc        1 MOL      0.033206
     32 H12         1.0060    5.8830    0.2630 hc        1 MOL      0.028449
     33 H13         0.4870    4.2760    1.0670 hc        1 MOL      0.028449
     34 H14        -0.9150    5.4440    2.4910 hc        1 MOL      0.019225
     35 H15        -0.2840    7.0180    1.7540 hc        1 MOL      0.019225
     36 H16         1.9250    6.2330    2.4700 hx        1 MOL      0.032781
     37 H17         1.1420    4.9330    3.3700 hx        1 MOL      0.032781
     38 H18         0.0630    6.7010    4.7650 hn        1 MOL      0.375883
     39 H19         1.7260    6.8960    4.7830 hn        1 MOL      0.375883
     40 H20         0.8500    7.8710    3.8570 hn        1 MOL      0.375883
     41 N4         -3.9830    3.3590   -0.8500 n         1 MOL     -0.460199
     42 C13        -4.9910    3.2460   -1.9200 c3        1 MOL      0.023327
     43 C14        -6.3990    2.8820   -1.5790 c         1 MOL      0.475808
     44 O6         -7.2860    3.1180   -2.4060 o         1 MOL     -0.541020
     45 C15        -4.5850    2.3160   -3.0960 c3        1 MOL      0.076089
     46 C16        -3.1030    2.4090   -3.3850 c         1 MOL      0.592788
     47 O7         -2.8350    3.3180   -4.1550 o         1 MOL     -0.629574
     48 O8         -2.3140    1.6610   -2.8510 o         1 MOL     -0.629574
     49 H21        -3.5480    2.5480   -0.4300 hn        1 MOL      0.117946
     50 H22        -5.1850    4.2190   -2.3740 h1        1 MOL      0.082637
     51 H23        -5.2180    2.4700   -3.9680 hc        1 MOL     -0.010151
     52 H24        -4.7360    1.2890   -2.7590 hc        1 MOL     -0.010151
     53 N5         -6.7090    2.2900   -0.4310 n         1 MOL     -0.380294
     54 C17        -8.0510    1.7340   -0.0910 c3        1 MOL     -0.095286
     55 C18        -8.2460    0.4030   -0.8580 c         1 MOL      0.575608
     56 O9         -9.3620   -0.0560   -1.0680 o         1 MOL     -0.577805
     57 H25        -6.0030    2.1030    0.2750 hn        1 MOL      0.292656
     58 H26        -8.8970    2.3370   -0.4100 h1        1 MOL      0.088753
     59 H27        -8.2340    1.4110    0.9310 h1        1 MOL      0.088753
     60 N6         -7.1190   -0.3360   -1.1460 n         1 MOL     -0.377343
     61 C19        -7.0620   -1.6230   -1.8500 c3        1 MOL      0.036810
     62 C20        -6.8230   -2.8940   -0.9920 c         1 MOL      0.398465
     63 O10        -6.9640   -4.0330   -1.4310 o         1 MOL     -0.543516
     64 C21        -5.9630   -1.6810   -2.9790 c3        1 MOL     -0.282037
     65 C22        -4.5230   -1.4910   -2.4280 c         1 MOL      0.876785
     66 O11        -3.5700   -1.2470   -3.2150 o         1 MOL     -0.831702
     67 O12        -4.2250   -1.6950   -1.2620 o         1 MOL     -0.831702
     68 H28        -6.2510   -0.0980   -0.6840 hn        1 MOL      0.291949
     69 H29        -8.0100   -1.8360   -2.3270 h1        1 MOL      0.103033
     70 H30        -6.1020   -0.9310   -3.7540 hc        1 MOL      0.081064
     71 H31        -6.1180   -2.6600   -3.4260 hc        1 MOL      0.081064
     72 N7         -6.4710   -2.6820    0.2880 n         1 MOL     -0.181412
     73 C23        -6.3420   -3.6720    1.3780 c3        1 MOL     -0.202136
     74 C24        -4.9640   -4.3180    1.5680 c         1 MOL      0.523508
     75 O13        -4.9360   -5.2790    2.3610 o         1 MOL     -0.562777
     76 H32        -6.2420   -1.7410    0.5530 hn        1 MOL      0.138341
     77 H33        -7.0620   -4.4280    1.0750 h1        1 MOL      0.121649
     78 H34        -6.7910   -3.2090    2.2520 h1        1 MOL      0.121649
     79 N8         -3.8680   -3.8070    0.9670 n         1 MOL     -0.336391
     80 C25        -2.5200   -4.3860    1.0300 c3        1 MOL     -0.015076
     81 C26        -1.4840   -3.2780    1.1500 c         1 MOL      0.559912
     82 O14        -1.7050   -2.1660    0.7240 o         1 MOL     -0.504751
     83 C27        -2.1600   -5.3170   -0.1440 c3        1 MOL      0.343503
     84 C28        -2.7370   -6.7050   -0.1020 c3        1 MOL     -0.476124
     85 O15        -2.4770   -4.8670   -1.4240 oh        1 MOL     -0.620135
     86 H35        -3.9680   -3.0010    0.3660 hn        1 MOL      0.314454
     87 H36        -2.4650   -4.9260    1.9700 h1        1 MOL      0.061056
     88 H37        -1.0830   -5.4620   -0.0550 h1        1 MOL      0.039214
     89 H38        -3.4320   -4.8860   -1.4830 ho        1 MOL      0.437072
     90 H39        -3.8190   -6.5730   -0.0660 hc        1 MOL      0.127586
     91 H40        -2.4580   -7.2060   -1.0210 hc        1 MOL      0.127586
     92 H41        -2.4350   -7.2630    0.7800 hc        1 MOL      0.127586
     93 N9         -0.2660   -3.6950    1.6250 n         1 MOL     -0.605868
     94 C29         0.9290   -2.8870    1.7050 c3        1 MOL      0.177977
     95 C30         1.9710   -3.5250    0.7490 c         1 MOL      0.401539
     96 O16         2.2450   -4.6970    0.7490 o         1 MOL     -0.539667
     97 C31         1.3110   -2.7820    3.2450 c3        1 MOL      0.100374
     98 C32         0.1550   -2.0840    3.9790 c3        1 MOL      0.209664
     99 C33         2.5420   -2.0310    3.5940 c3        1 MOL     -0.426461
    100 C34         0.3020   -1.7180    5.4550 c3        1 MOL     -0.318997
    101 H42        -0.2730   -4.6110    2.0380 hn        1 MOL      0.287956
    102 H43         0.6970   -1.8490    1.4520 h1        1 MOL      0.165325
    103 H44         1.3770   -3.8120    3.5900 hc        1 MOL      0.001642
    104 H45        -0.7410   -2.7050    3.8440 hc        1 MOL     -0.042985
    105 H46        -0.1120   -1.1730    3.4470 hc        1 MOL     -0.042985
    106 H47         2.8050   -2.2300    4.6290 hc        1 MOL      0.083478
    107 H48         3.3660   -2.3100    2.9390 hc        1 MOL      0.083478
    108 H49         2.3950   -0.9610    3.6290 hc        1 MOL      0.083478
    109 H50        -0.6680   -1.4730    5.8960 hc        1 MOL      0.074355
    110 H51         0.7070   -2.5700    6.0000 hc        1 MOL      0.074355
    111 H52         0.9570   -0.8640    5.6320 hc        1 MOL      0.074355
    112 N10         2.5810   -2.6790   -0.0580 n         1 MOL     -0.025571
    113 C35         3.7810   -2.9370   -0.9050 c3        1 MOL      0.001882
    114 C36         5.0800   -2.6460   -0.1490 c         1 MOL      0.331212
    115 O17         5.0550   -2.0620    0.9300 o         1 MOL     -0.317990
    116 C37         3.7390   -2.0370   -2.1360 c3        1 MOL      0.229724
    117 C38         2.6540   -2.6350   -3.1240 c3        1 MOL     -0.310531
    118 O18         3.4130   -0.7350   -1.7500 oh        1 MOL     -0.554299
    119 H53         2.1980   -1.7400   -0.0390 hn        1 MOL     -0.041172
    120 H54         3.9410   -3.9910   -1.1080 h1        1 MOL      0.055239
    121 H55         4.7060   -1.9380   -2.6090 h1        1 MOL      0.024602
    122 H56         2.6070   -0.8770   -1.2430 ho        1 MOL      0.471060
    123 H57         3.0730   -3.5520   -3.5410 hc        1 MOL      0.064106
    124 H58         1.7140   -2.7310   -2.5890 hc        1 MOL      0.064106
    125 H59         2.4900   -1.8610   -3.8840 hc        1 MOL      0.064106
    126 N11         6.2080   -2.9470   -0.8070 n         1 MOL     -0.188331
    127 C39         7.5730   -2.5640   -0.3650 c3        1 MOL     -0.473914
    128 C40         7.7110   -1.0520   -0.1490 c         1 MOL      0.527374
    129 O19         8.1040   -0.5800    0.8850 o         1 MOL     -0.458057
    130 C41         8.5750   -2.9740   -1.4310 c3        1 MOL      0.436249
    131 C42         8.7600   -4.5050   -1.4670 c3        1 MOL     -0.339131
    132 O20         8.5100   -2.4240   -2.7080 oh        1 MOL     -0.658430
    133 H60         6.1330   -3.5270   -1.6300 hn        1 MOL      0.262288
    134 H61         7.7370   -3.1400    0.5410 h1        1 MOL      0.213648
    135 H62         9.5550   -2.6190   -1.1160 h1        1 MOL      0.023991
    136 H63         9.4150   -2.3510   -3.0150 ho        1 MOL      0.415419
    137 H64         9.6940   -4.7300   -1.9660 hc        1 MOL      0.092857
    138 H65         9.0110   -4.8540   -0.4660 hc        1 MOL      0.092857
    139 H66         7.8790   -5.0450   -1.8260 hc        1 MOL      0.092857
    140 N12         7.3100   -0.2020   -1.1230 n         1 MOL     -0.352547
    141 C43         7.2490    1.2820   -1.0190 c3        1 MOL     -0.136738
    142 C44         6.3770    1.7030    0.2190 c         1 MOL      0.521890
    143 O21         6.7830    2.5450    0.9410 o         1 MOL     -0.493251
    144 C45         6.4420    1.9140   -2.1850 c3        1 MOL     -0.121113
    145 C46         7.3370    2.1070   -3.4020 c3        1 MOL      0.021516
    146 C47         6.6430    2.6780   -4.6310 c3        1 MOL     -0.078817
    147 C48         6.2590    4.1310   -4.5150 c3        1 MOL      0.109576
    148 N13         5.6010    4.6410   -5.7220 n4        1 MOL     -0.260536
    149 H67         7.0750   -0.6020   -2.0200 hn        1 MOL      0.300904
    150 H68         8.2400    1.7150   -0.9140 h1        1 MOL      0.120211
    151 H69         6.0370    2.8810   -1.8800 hc        1 MOL      0.069795
    152 H70         5.5750    1.3140   -2.4820 hc        1 MOL      0.069795
    153 H71         7.6820    1.0930   -3.6320 hc        1 MOL      0.031076
    154 H72         8.1300    2.8390   -3.2860 hc        1 MOL      0.031076
    155 H73         5.6310    2.2870   -4.7140 hc        1 MOL      0.038012
    156 H74         7.3280    2.4770   -5.4550 hc        1 MOL      0.038012
    157 H75         7.1700    4.7090   -4.3350 hx        1 MOL      0.059824
    158 H76         5.5510    4.3000   -3.7070 hx        1 MOL      0.059824
    159 H77         6.0960    4.5270   -6.5890 hn        1 MOL      0.253417
    160 H78         4.7570    4.1290   -5.9470 hn        1 MOL      0.253417
    161 H79         5.4210    5.6330   -5.6050 hn        1 MOL      0.253417
    162 N14         5.1550    1.0700    0.3920 n         1 MOL     -0.173627
    163 C49         4.2210    1.4000    1.4770 c3        1 MOL     -0.102325
    164 C50         4.8270    1.0940    2.8770 c         1 MOL      0.438868
    165 O22         4.8890    1.9520    3.7280 o         1 MOL     -0.570594
    166 C51         2.8120    0.7530    1.2920 c3        1 MOL      0.100556
    167 C52         2.0580    1.5040    0.2100 c3        1 MOL     -0.165384
    168 C53         0.7830    0.7990   -0.2300 c         1 MOL      0.825090
    169 O23         0.8440   -0.4250   -0.4370 o         1 MOL     -0.780189
    170 O24        -0.3160    1.3490   -0.4990 o         1 MOL     -0.780189
    171 H80         4.9180    0.3380   -0.2710 hn        1 MOL      0.065333
    172 H81         4.0150    2.4630    1.4540 h1        1 MOL      0.066645
    173 H82         2.1660    0.8040    2.1660 hc        1 MOL      0.015771
    174 H83         2.9330   -0.3100    1.0830 hc        1 MOL      0.015771
    175 H84         2.7210    1.5560   -0.6580 hc        1 MOL      0.002265
    176 H85         1.9140    2.5510    0.4770 hc        1 MOL      0.002265
    177 N15         5.3730   -0.1150    3.0520 n         1 MOL     -0.005984
    178 C54         6.2400   -0.5520    4.1570 c3        1 MOL     -0.251465
    179 H86         6.4930    0.3060    4.7810 h1        1 MOL      0.095757
    180 H87         5.7170   -1.2960    4.7570 h1        1 MOL      0.095757
    181 H88         7.1540   -0.9870    3.7530 h1        1 MOL      0.095757
    182 H89         5.1640   -0.6950    2.2600 hn        1 MOL      0.091647
    183 Ca1        -1.7740   -0.3840   -1.5240 Ca        1 MOL      1.729839
    184 O25        -0.9940   -2.8550   -2.1480 oh        1 MOL     -0.805969
    185 H90        -1.2750   -3.7560   -2.0240 ho        1 MOL      0.399624
    186 H91        -0.5260   -2.8740   -2.9870 ho        1 MOL      0.399624
    187 O26         0.0020   -0.0760   -3.4890 oh        1 MOL     -0.805969
    188 H92         0.7530    0.5110   -3.5670 ho        1 MOL      0.399624
    189 H93        -0.0120   -0.5610   -4.3110 ho        1 MOL      0.399624
@<TRIPOS>BOND
     1    1    2 1   
     2    1    4 1   
     3    1    5 1   
     4    1    6 1   
     5    2    3 2   
     6    2    7 1   
     7    7    8 1   
     8    7   15 1   
     9    8    9 1   
    10    8   11 1   
    11    8   16 1   
    12    9   10 2   
    13    9   19 1   
    14   11   12 1   
    15   11   17 1   
    16   11   18 1   
    17   12   13 1   
    18   12   14 1   
    19   19   20 1   
    20   19   28 1   
    21   20   21 1   
    22   20   23 1   
    23   20   29 1   
    24   21   22 2   
    25   21   41 1   
    26   23   24 1   
    27   23   30 1   
    28   23   31 1   
    29   24   25 1   
    30   24   32 1   
    31   24   33 1   
    32   25   26 1   
    33   25   34 1   
    34   25   35 1   
    35   26   27 1   
    36   26   36 1   
    37   26   37 1   
    38   27   38 1   
    39   27   39 1   
    40   27   40 1   
    41   41   42 1   
    42   41   49 1   
    43   42   43 1   
    44   42   45 1   
    45   42   50 1   
    46   43   44 2   
    47   43   53 1   
    48   45   46 1   
    49   45   51 1   
    50   45   52 1   
    51   46   47 1   
    52   46   48 1   
    53   53   54 1   
    54   53   57 1   
    55   54   55 1   
    56   54   58 1   
    57   54   59 1   
    58   55   56 2   
    59   55   60 1   
    60   60   61 1   
    61   60   68 1   
    62   61   62 1   
    63   61   64 1   
    64   61   69 1   
    65   62   63 2   
    66   62   72 1   
    67   64   65 1   
    68   64   70 1   
    69   64   71 1   
    70   65   66 1   
    71   65   67 1   
    72   72   73 1   
    73   72   76 1   
    74   73   74 1   
    75   73   77 1   
    76   73   78 1   
    77   74   75 2   
    78   74   79 1   
    79   79   80 1   
    80   79   86 1   
    81   80   81 1   
    82   80   83 1   
    83   80   87 1   
    84   81   82 2   
    85   81   93 1   
    86   83   84 1   
    87   83   85 1   
    88   83   88 1   
    89   84   90 1   
    90   84   91 1   
    91   84   92 1   
    92   85   89 1   
    93   93   94 1   
    94   93  101 1   
    95   94   95 1   
    96   94   97 1   
    97   94  102 1   
    98   95   96 2   
    99   95  112 1   
   100   97   98 1   
   101   97   99 1   
   102   97  103 1   
   103   98  100 1   
   104   98  104 1   
   105   98  105 1   
   106   99  106 1   
   107   99  107 1   
   108   99  108 1   
   109  100  109 1   
   110  100  110 1   
   111  100  111 1   
   112  112  113 1   
   113  112  119 1   
   114  113  114 1   
   115  113  116 1   
   116  113  120 1   
   117  114  115 2   
   118  114  126 1   
   119  116  117 1   
   120  116  118 1   
   121  116  121 1   
   122  117  123 1   
   123  117  124 1   
   124  117  125 1   
   125  118  122 1   
   126  126  127 1   
   127  126  133 1   
   128  127  128 1   
   129  127  130 1   
   130  127  134 1   
   131  128  129 2   
   132  128  140 1   
   133  130  131 1   
   134  130  132 1   
   135  130  135 1   
   136  131  137 1   
   137  131  138 1   
   138  131  139 1   
   139  132  136 1   
   140  140  141 1   
   141  140  149 1   
   142  141  142 1   
   143  141  144 1   
   144  141  150 1   
   145  142  143 2   
   146  142  162 1   
   147  144  145 1   
   148  144  151 1   
   149  144  152 1   
   150  145  146 1   
   151  145  153 1   
   152  145  154 1   
   153  146  147 1   
   154  146  155 1   
   155  146  156 1   
   156  147  148 1   
   157  147  157 1   
   158  147  158 1   
   159  148  159 1   
   160  148  160 1   
   161  148  161 1   
   162  162  163 1   
   163  162  171 1   
   164  163  164 1   
   165  163  166 1   
   166  163  172 1   
   167  164  165 2   
   168  164  177 1   
   169  166  167 1   
   170  166  173 1   
   171  166  174 1   
   172  167  168 1   
   173  167  175 1   
   174  167  176 1   
   175  168  169 1   
   176  168  170 1   
   177  177  178 1   
   178  177  182 1   
   179  178  179 1   
   180  178  180 1   
   181  178  181 1   
   182  184  185 1   
   183  184  186 1   
   184  187  188 1   
   185  187  189 1   
@<TRIPOS>SUBSTRUCTURE
     1 MOL         1 TEMP              0 ****  ****    0 ROOT
