@<TRIPOS>MOLECULE
MOL
  189   185     1     0     0
SMALL
resp


@<TRIPOS>ATOM
      1 C1         -0.1920    3.2740   -5.1470 c3        1 MOL     -0.260512
      2 C2          0.2960    2.9290   -3.7750 c         1 MOL      0.795255
      3 O1         -0.4610    3.1550   -2.8540 o         1 MOL     -0.633795
      4 H1          0.5870    3.0510   -5.8760 hc        1 MOL      0.052588
      5 H2         -1.0810    2.6860   -5.3750 hc        1 MOL      0.052588
      6 H3         -0.4370    4.3360   -5.1900 hc        1 MOL      0.052588
      7 N1          1.4950    2.3900   -3.6870 n         1 MOL     -0.556035
      8 C3          1.9460    2.0610   -2.3480 c3        1 MOL      0.071384
      9 C4          2.5500    3.2400   -1.6400 c         1 MOL      0.320253
     10 O2          3.5100    3.8130   -2.1820 o         1 MOL     -0.526435
     11 C5          3.0570    0.9370   -2.5050 c3        1 MOL     -0.281237
     12 C6          3.7480    0.4510   -1.2670 c         1 MOL      0.938931
     13 O3          3.2080    0.6720   -0.1380 o         1 MOL     -0.767123
     14 O4          4.8080   -0.2240   -1.4360 o         1 MOL     -0.767123
     15 H4          1.9580    2.0210   -4.5030 hn        1 MOL      0.332681
     16 H5          1.0640    1.7160   -1.8110 h1        1 MOL      0.034633
     17 H6          3.8440    1.1630   -3.2290 hc        1 MOL      0.067398
     18 H7          2.5150    0.0450   -2.8320 hc        1 MOL      0.067398
     19 N2          2.0510    3.5410   -0.4300 n         1 MOL     -0.138973
     20 C7          2.4190    4.7580    0.2450 c3        1 MOL      0.032770
     21 C8          3.4860    4.6180    1.2820 c         1 MOL      0.326855
     22 O5          4.1710    5.5820    1.6930 o         1 MOL     -0.551993
     23 C9          1.1150    5.3770    0.7940 c3        1 MOL      0.132185
     24 C10         0.1870    5.8330   -0.3320 c3        1 MOL     -0.097560
     25 C11         0.6950    6.9490   -1.1760 c3        1 MOL     -0.138681
     26 C12        -0.3150    7.3950   -2.2090 c3        1 MOL      0.068696
     27 N3          0.3020    8.2520   -3.3200 n4        1 MOL     -0.307547
     28 H8          1.3600    2.9070   -0.0490 hn        1 MOL      0.241460
     29 H9          2.8070    5.4200   -0.5170 h1        1 MOL      0.042778
     30 H10         1.4120    6.2930    1.3070 hc        1 MOL     -0.014381
     31 H11         0.6130    4.7150    1.4970 hc        1 MOL     -0.014381
     32 H12        -0.7380    6.1570    0.1380 hc        1 MOL      0.057128
     33 H13        -0.0200    4.9370   -0.9220 hc        1 MOL      0.057128
     34 H14         1.6980    6.8390   -1.6010 hc        1 MOL      0.062315
     35 H15         0.9100    7.8230   -0.5620 hc        1 MOL      0.062315
     36 H16        -0.9900    8.0380   -1.6490 hx        1 MOL      0.074260
     37 H17        -0.8400    6.5190   -2.5970 hx        1 MOL      0.074260
     38 H18        -0.3920    8.7360   -3.8660 hn        1 MOL      0.310757
     39 H19         0.9980    8.9090   -2.9910 hn        1 MOL      0.310757
     40 H20         0.8050    7.6000   -3.9010 hn        1 MOL      0.310757
     41 N4          3.8270    3.3910    1.7080 n         1 MOL      0.062227
     42 C13         4.8530    3.1530    2.7840 c3        1 MOL     -0.270573
     43 C14         6.2600    2.7170    2.3440 c         1 MOL      0.528410
     44 O6          7.1880    2.6130    3.0800 o         1 MOL     -0.499826
     45 C15         4.2680    1.9820    3.6980 c3        1 MOL     -0.004589
     46 C16         2.7500    1.9360    3.8310 c         1 MOL      0.606798
     47 O7          2.2390    2.5610    4.7870 o         1 MOL     -0.634242
     48 O8          2.0480    1.2990    3.0180 o         1 MOL     -0.634242
     49 H21         3.3100    2.5900    1.3700 hn        1 MOL      0.047825
     50 H22         4.9380    4.0850    3.3490 h1        1 MOL      0.144395
     51 H23         4.8420    1.9820    4.6240 hc        1 MOL      0.028679
     52 H24         4.6410    1.0380    3.2790 hc        1 MOL      0.028679
     53 N5          6.3300    2.2910    1.0830 n         1 MOL     -0.325926
     54 C17         7.5190    1.6970    0.4990 c3        1 MOL     -0.170202
     55 C18         7.8260    0.1770    0.8170 c         1 MOL      0.426902
     56 O9          8.9890   -0.2780    0.9450 o         1 MOL     -0.563379
     57 H25         5.4350    2.2840    0.5990 hn        1 MOL      0.217278
     58 H26         8.3700    2.3270    0.7610 h1        1 MOL      0.112554
     59 H27         7.3780    1.6790   -0.5870 h1        1 MOL      0.112554
     60 N6          6.7470   -0.6110    1.0390 n         1 MOL     -0.035438
     61 C19         6.8830   -2.0700    1.4630 c3        1 MOL     -0.263157
     62 C20         6.7150   -3.1660    0.3590 c         1 MOL      0.471733
     63 O10         6.7330   -4.3290    0.7420 o         1 MOL     -0.478938
     64 C21         5.9050   -2.2980    2.6040 c3        1 MOL     -0.055438
     65 C22         4.4030   -2.0060    2.3500 c         1 MOL      0.661922
     66 O11         3.9550   -2.1220    1.1660 o         1 MOL     -0.732508
     67 O12         3.5930   -1.7270    3.2610 o         1 MOL     -0.732508
     68 H28         5.8650   -0.2560    0.7050 hn        1 MOL      0.152939
     69 H29         7.8710   -2.3100    1.8580 h1        1 MOL      0.180739
     70 H30         6.1980   -1.5500    3.3350 hc        1 MOL      0.045458
     71 H31         6.1200   -3.2800    3.0180 hc        1 MOL      0.045458
     72 N7          6.5420   -2.7910   -0.9390 n         1 MOL     -0.352432
     73 C23         6.4270   -3.7900   -1.9940 c3        1 MOL     -0.179151
     74 C24         5.0570   -4.5230   -1.9480 c         1 MOL      0.473332
     75 O13         4.9640   -5.7110   -2.3770 o         1 MOL     -0.566111
     76 H32         6.3800   -1.8210   -1.1710 hn        1 MOL      0.304238
     77 H33         7.1520   -4.5660   -1.7830 h1        1 MOL      0.120222
     78 H34         6.4950   -3.3690   -2.9990 h1        1 MOL      0.120222
     79 N8          4.0520   -3.9360   -1.3660 n         1 MOL     -0.135381
     80 C25         2.6750   -4.5060   -1.2710 c3        1 MOL     -0.542909
     81 C26         1.6030   -3.4430   -1.3750 c         1 MOL      0.904185
     82 O14         1.5130   -2.5190   -0.6390 o         1 MOL     -0.678856
     83 C27         2.5320   -5.2840    0.0340 c3        1 MOL      0.513184
     84 C28         3.1990   -6.5810    0.0040 c3        1 MOL     -0.449463
     85 O15         2.9160   -4.5260    1.2210 oh        1 MOL     -0.615438
     86 H35         4.1890   -2.9550   -1.1770 hn        1 MOL      0.234855
     87 H36         2.5530   -5.2010   -2.0950 h1        1 MOL      0.170127
     88 H37         1.4830   -5.5620    0.1280 h1        1 MOL     -0.014387
     89 H38         3.3380   -3.7370    0.8630 ho        1 MOL      0.430905
     90 H39         2.7780   -7.1350    0.8550 hc        1 MOL      0.119851
     91 H40         2.9340   -7.2200   -0.8350 hc        1 MOL      0.119851
     92 H41         4.2730   -6.4660    0.0810 hc        1 MOL      0.119851
     93 N9          0.6250   -3.6360   -2.2610 n         1 MOL     -0.713285
     94 C29        -0.5890   -2.7590   -2.4090 c3        1 MOL      0.161725
     95 C30        -1.7980   -3.3350   -1.6580 c         1 MOL      0.452614
     96 O16        -2.0620   -4.5490   -1.8790 o         1 MOL     -0.552728
     97 C31        -0.8000   -2.3550   -3.8960 c3        1 MOL      0.155392
     98 C32         0.3200   -1.4620   -4.4600 c3        1 MOL      0.253226
     99 C33        -2.0630   -1.6050   -3.9510 c3        1 MOL     -0.427457
    100 C34         0.3870   -1.3210   -6.0060 c3        1 MOL     -0.312879
    101 H42         0.7040   -4.4660   -2.8290 hn        1 MOL      0.330114
    102 H43        -0.3370   -1.8140   -1.9180 h1        1 MOL      0.013467
    103 H44        -0.8720   -3.2530   -4.5050 hc        1 MOL      0.007276
    104 H45         1.2870   -1.8600   -4.1550 hc        1 MOL     -0.049710
    105 H46         0.2740   -0.4180   -4.1470 hc        1 MOL     -0.049710
    106 H47        -2.0600   -0.6150   -3.4910 hc        1 MOL      0.085272
    107 H48        -2.3790   -1.4680   -4.9840 hc        1 MOL      0.085272
    108 H49        -2.8890   -2.2130   -3.5810 hc        1 MOL      0.085272
    109 H50         1.3340   -0.9040   -6.3740 hc        1 MOL      0.067052
    110 H51         0.2810   -2.3020   -6.4700 hc        1 MOL      0.067052
    111 H52        -0.4860   -0.7320   -6.2840 hc        1 MOL      0.067052
    112 N10        -2.5580   -2.5070   -0.9410 n         1 MOL     -0.112750
    113 C35        -3.7330   -2.7910   -0.1360 c3        1 MOL     -0.087669
    114 C36        -5.0220   -2.2020   -0.6830 c         1 MOL      0.535794
    115 O17        -4.9890   -1.3320   -1.5330 o         1 MOL     -0.482946
    116 C37        -3.5160   -2.3750    1.3240 c3        1 MOL      0.267341
    117 C38        -2.3240   -2.9670    2.0490 c3        1 MOL     -0.284424
    118 O18        -3.4470   -0.9660    1.4720 oh        1 MOL     -0.597560
    119 H53        -2.1390   -1.5840   -0.8930 hn        1 MOL      0.226137
    120 H54        -3.9230   -3.8540   -0.2640 h1        1 MOL      0.045899
    121 H55        -4.3610   -2.7680    1.9020 h1        1 MOL      0.013476
    122 H56        -2.5690   -0.7250    1.1890 ho        1 MOL      0.330190
    123 H57        -2.5260   -3.9980    2.3250 hc        1 MOL      0.071525
    124 H58        -1.3860   -2.9070    1.4840 hc        1 MOL      0.071525
    125 H59        -2.1900   -2.4960    3.0290 hc        1 MOL      0.071525
    126 N11        -6.1860   -2.7270   -0.2120 n         1 MOL     -0.342109
    127 C39        -7.5780   -2.2840   -0.6240 c3        1 MOL     -0.197632
    128 C40        -7.7900   -0.7750   -0.3770 c         1 MOL      0.439955
    129 O19        -8.2270   -0.1190   -1.3250 o         1 MOL     -0.497867
    130 C41        -8.6480   -3.0850    0.1440 c3        1 MOL      0.212627
    131 C42        -8.6810   -4.5170   -0.3860 c3        1 MOL     -0.346292
    132 O20        -8.3470   -2.9730    1.5060 oh        1 MOL     -0.623085
    133 H60        -6.1500   -3.4480    0.4920 hn        1 MOL      0.261214
    134 H61        -7.6090   -2.3540   -1.7060 h1        1 MOL      0.177553
    135 H62        -9.6230   -2.6280   -0.0490 h1        1 MOL      0.065851
    136 H63        -9.1100   -3.3050    1.9680 ho        1 MOL      0.426477
    137 H64        -8.7450   -4.5110   -1.4780 hc        1 MOL      0.107154
    138 H65        -7.7880   -5.1160   -0.2060 hc        1 MOL      0.107154
    139 H66        -9.5430   -5.0540    0.0220 hc        1 MOL      0.107154
    140 N12        -7.2520   -0.3070    0.7440 n         1 MOL     -0.287791
    141 C43        -7.0760    1.0780    1.2020 c3        1 MOL      0.037179
    142 C44        -6.1570    1.8960    0.2900 c         1 MOL      0.324138
    143 O21        -6.4410    3.0470   -0.0190 o         1 MOL     -0.521991
    144 C45        -6.4400    1.0740    2.6110 c3        1 MOL     -0.162862
    145 C46        -7.4350    0.7930    3.6780 c3        1 MOL      0.176994
    146 C47        -6.6080    0.7470    5.0510 c3        1 MOL     -0.145598
    147 C48        -7.6430    0.7500    6.1520 c3        1 MOL      0.089884
    148 N13        -7.2100    1.3040    7.3930 n4        1 MOL     -0.166432
    149 H67        -6.9870   -1.0650    1.3610 hn        1 MOL      0.280979
    150 H68        -8.0460    1.5820    1.1890 h1        1 MOL      0.087947
    151 H69        -5.9880    2.0360    2.8420 hc        1 MOL      0.051908
    152 H70        -5.6710    0.2970    2.6360 hc        1 MOL      0.051908
    153 H71        -7.9440   -0.1290    3.4100 hc        1 MOL     -0.029612
    154 H72        -8.2250    1.5440    3.6700 hc        1 MOL     -0.029612
    155 H73        -6.0910    1.7150    5.0390 hc        1 MOL      0.077521
    156 H74        -5.9360   -0.1070    5.0920 hc        1 MOL      0.077521
    157 H75        -8.0530   -0.2470    6.3300 hx        1 MOL      0.044599
    158 H76        -8.4660    1.3610    5.7900 hx        1 MOL      0.044599
    159 H77        -6.3110    1.7590    7.3210 hn        1 MOL      0.237982
    160 H78        -7.8980    2.0150    7.6130 hn        1 MOL      0.237982
    161 H79        -7.1690    0.7560    8.2390 hn        1 MOL      0.237982
    162 N14        -5.0980    1.2910   -0.2550 n         1 MOL      0.116398
    163 C49        -4.1140    2.0080   -1.1170 c3        1 MOL     -0.260619
    164 C50        -4.5740    2.1170   -2.5630 c         1 MOL      0.542722
    165 O22        -4.2350    3.0660   -3.2490 o         1 MOL     -0.552740
    166 C51        -2.7890    1.3470   -0.9300 c3        1 MOL      0.112847
    167 C52        -2.0830    1.6290    0.3690 c3        1 MOL     -0.144320
    168 C53        -0.7710    0.8600    0.3830 c         1 MOL      0.746420
    169 O23         0.3370    1.4180    0.4470 o         1 MOL     -0.713422
    170 O24        -0.8230   -0.4450    0.5020 o         1 MOL     -0.713422
    171 H80        -4.8420    0.4270    0.2140 hn        1 MOL      0.028724
    172 H81        -4.0210    3.0370   -0.7480 h1        1 MOL      0.120394
    173 H82        -2.1660    1.5700   -1.8040 hc        1 MOL      0.014157
    174 H83        -2.9100    0.2650   -1.0150 hc        1 MOL      0.014157
    175 H84        -2.6830    1.2960    1.2130 hc        1 MOL      0.025112
    176 H85        -1.9090    2.7020    0.4570 hc        1 MOL      0.025112
    177 N15        -5.5330    1.2700   -3.0020 n         1 MOL     -0.188880
    178 C54        -6.3270    1.4050   -4.2140 c3        1 MOL     -0.329054
    179 H86        -5.6950    1.7710   -5.0230 h1        1 MOL      0.126185
    180 H87        -6.7410    0.4350   -4.4870 h1        1 MOL      0.126185
    181 H88        -7.1390    2.1120   -4.0400 h1        1 MOL      0.126185
    182 H89        -5.7500    0.4880   -2.3980 hn        1 MOL      0.203176
    183 Ca1         1.5130   -0.8310    1.4300 Ca        1 MOL      1.737952
    184 O25        -0.1840   -0.6110    3.6770 oh        1 MOL     -0.822649
    185 H90        -0.4510    0.2860    3.8810 ho        1 MOL      0.402737
    186 H91        -0.7030   -1.1540    4.2620 ho        1 MOL      0.402737
    187 O26         0.8480   -3.4100    2.7160 oh        1 MOL     -0.822649
    188 H92         1.4580   -4.1130    2.4920 ho        1 MOL      0.402737
    189 H93         0.8130   -3.4070    3.6660 ho        1 MOL      0.402737
@<TRIPOS>BOND
     1    1    2 1   
     2    1    4 1   
     3    1    5 1   
     4    1    6 1   
     5    2    3 2   
     6    2    7 1   
     7    7    8 1   
     8    7   15 1   
     9    8    9 1   
    10    8   11 1   
    11    8   16 1   
    12    9   10 2   
    13    9   19 1   
    14   11   12 1   
    15   11   17 1   
    16   11   18 1   
    17   12   13 1   
    18   12   14 1   
    19   19   20 1   
    20   19   28 1   
    21   20   21 1   
    22   20   23 1   
    23   20   29 1   
    24   21   22 2   
    25   21   41 1   
    26   23   24 1   
    27   23   30 1   
    28   23   31 1   
    29   24   25 1   
    30   24   32 1   
    31   24   33 1   
    32   25   26 1   
    33   25   34 1   
    34   25   35 1   
    35   26   27 1   
    36   26   36 1   
    37   26   37 1   
    38   27   38 1   
    39   27   39 1   
    40   27   40 1   
    41   41   42 1   
    42   41   49 1   
    43   42   43 1   
    44   42   45 1   
    45   42   50 1   
    46   43   44 2   
    47   43   53 1   
    48   45   46 1   
    49   45   51 1   
    50   45   52 1   
    51   46   47 1   
    52   46   48 1   
    53   53   54 1   
    54   53   57 1   
    55   54   55 1   
    56   54   58 1   
    57   54   59 1   
    58   55   56 2   
    59   55   60 1   
    60   60   61 1   
    61   60   68 1   
    62   61   62 1   
    63   61   64 1   
    64   61   69 1   
    65   62   63 2   
    66   62   72 1   
    67   64   65 1   
    68   64   70 1   
    69   64   71 1   
    70   65   66 1   
    71   65   67 1   
    72   72   73 1   
    73   72   76 1   
    74   73   74 1   
    75   73   77 1   
    76   73   78 1   
    77   74   75 2   
    78   74   79 1   
    79   79   80 1   
    80   79   86 1   
    81   80   81 1   
    82   80   83 1   
    83   80   87 1   
    84   81   82 2   
    85   81   93 1   
    86   83   84 1   
    87   83   85 1   
    88   83   88 1   
    89   84   90 1   
    90   84   91 1   
    91   84   92 1   
    92   85   89 1   
    93   93   94 1   
    94   93  101 1   
    95   94   95 1   
    96   94   97 1   
    97   94  102 1   
    98   95   96 2   
    99   95  112 1   
   100   97   98 1   
   101   97   99 1   
   102   97  103 1   
   103   98  100 1   
   104   98  104 1   
   105   98  105 1   
   106   99  106 1   
   107   99  107 1   
   108   99  108 1   
   109  100  109 1   
   110  100  110 1   
   111  100  111 1   
   112  112  113 1   
   113  112  119 1   
   114  113  114 1   
   115  113  116 1   
   116  113  120 1   
   117  114  115 2   
   118  114  126 1   
   119  116  117 1   
   120  116  118 1   
   121  116  121 1   
   122  117  123 1   
   123  117  124 1   
   124  117  125 1   
   125  118  122 1   
   126  126  127 1   
   127  126  133 1   
   128  127  128 1   
   129  127  130 1   
   130  127  134 1   
   131  128  129 2   
   132  128  140 1   
   133  130  131 1   
   134  130  132 1   
   135  130  135 1   
   136  131  137 1   
   137  131  138 1   
   138  131  139 1   
   139  132  136 1   
   140  140  141 1   
   141  140  149 1   
   142  141  142 1   
   143  141  144 1   
   144  141  150 1   
   145  142  143 2   
   146  142  162 1   
   147  144  145 1   
   148  144  151 1   
   149  144  152 1   
   150  145  146 1   
   151  145  153 1   
   152  145  154 1   
   153  146  147 1   
   154  146  155 1   
   155  146  156 1   
   156  147  148 1   
   157  147  157 1   
   158  147  158 1   
   159  148  159 1   
   160  148  160 1   
   161  148  161 1   
   162  162  163 1   
   163  162  171 1   
   164  163  164 1   
   165  163  166 1   
   166  163  172 1   
   167  164  165 2   
   168  164  177 1   
   169  166  167 1   
   170  166  173 1   
   171  166  174 1   
   172  167  168 1   
   173  167  175 1   
   174  167  176 1   
   175  168  169 1   
   176  168  170 1   
   177  177  178 1   
   178  177  182 1   
   179  178  179 1   
   180  178  180 1   
   181  178  181 1   
   182  184  185 1   
   183  184  186 1   
   184  187  188 1   
   185  187  189 1   
@<TRIPOS>SUBSTRUCTURE
     1 MOL         1 TEMP              0 ****  ****    0 ROOT
