@<TRIPOS>MOLECULE
MOL
  179   176     1     0     0
SMALL
resp


@<TRIPOS>ATOM
      1 C1          2.0780    3.2560    5.2290 c3        1 MOL     -0.315772
      2 C2          1.5860    2.6050    3.9670 c         1 MOL      0.786629
      3 O1          2.4200    2.2320    3.1230 o         1 MOL     -0.631848
      4 H1          1.8260    4.3160    5.2120 hc        1 MOL      0.071231
      5 H2          1.6050    2.7840    6.0900 hc        1 MOL      0.071231
      6 H3          3.1600    3.1410    5.2990 hc        1 MOL      0.071231
      7 N1          0.2830    2.5650    3.8220 n         1 MOL     -0.687300
      8 C3         -0.3320    2.4790    2.4910 c3        1 MOL      0.151235
      9 C4         -0.2050    3.9030    1.8890 c         1 MOL      0.521284
     10 O2         -0.6370    4.8690    2.4350 o         1 MOL     -0.571908
     11 C5         -1.7250    1.9470    2.7020 c3        1 MOL     -0.068761
     12 C6         -2.4770    1.7620    1.3330 c         1 MOL      0.783939
     13 O3         -3.7370    1.5020    1.2830 o         1 MOL     -0.772066
     14 O4         -1.7730    1.8140    0.3060 o         1 MOL     -0.772066
     15 H4         -0.3580    2.7180    4.5870 hn        1 MOL      0.357087
     16 H5          0.3110    1.8870    1.8340 h1        1 MOL     -0.028806
     17 H6         -2.3170    2.5880    3.3680 hc        1 MOL      0.020460
     18 H7         -1.6170    0.9580    3.1460 hc        1 MOL      0.020460
     19 N2          0.4100    3.9690    0.7290 n         1 MOL     -0.148486
     20 C7          0.5660    5.1850   -0.1260 c3        1 MOL     -0.099388
     21 C8         -0.6210    5.4480   -1.0060 c         1 MOL      0.575513
     22 O5         -0.8920    6.6120   -1.3210 o         1 MOL     -0.565177
     23 C9          1.8650    5.1960   -0.9270 c3        1 MOL     -0.154607
     24 C10         3.1860    5.2820   -0.0870 c3        1 MOL      0.093116
     25 C11         3.1580    6.5210    0.8440 c3        1 MOL     -0.178385
     26 C12         4.5380    6.8090    1.5190 c3        1 MOL      0.048861
     27 N3          4.4770    6.1610    2.8720 n4        1 MOL     -0.506630
     28 H8          0.7480    3.1040    0.3230 hn        1 MOL      0.165070
     29 H9          0.5730    6.0070    0.5830 h1        1 MOL      0.054097
     30 H10         1.8370    6.1010   -1.5300 hc        1 MOL      0.076278
     31 H11         1.7910    4.3010   -1.5510 hc        1 MOL      0.076278
     32 H12         4.0450    5.3440   -0.7610 hc        1 MOL      0.015565
     33 H13         3.1880    4.4070    0.5620 hc        1 MOL      0.015565
     34 H14         2.3990    6.3960    1.6030 hc        1 MOL      0.085401
     35 H15         2.8580    7.3550    0.1980 hc        1 MOL      0.085401
     36 H16         4.7180    7.8830    1.5670 hx        1 MOL      0.107164
     37 H17         5.4160    6.5290    0.9340 hx        1 MOL      0.107164
     38 H18         3.7670    6.5080    3.5020 hn        1 MOL      0.362698
     39 H19         4.2970    5.1650    2.8660 hn        1 MOL      0.362698
     40 H20         5.3630    6.2760    3.3550 hn        1 MOL      0.362698
     41 N4         -1.5080    4.4890   -1.3720 n         1 MOL     -0.230399
     42 C13        -2.4930    4.7410   -2.4180 c3        1 MOL     -0.124906
     43 C14        -3.9300    4.6280   -1.9090 c         1 MOL      0.437233
     44 O6         -4.8440    5.2040   -2.5820 o         1 MOL     -0.549072
     45 C15        -2.1260    3.7840   -3.5910 c3        1 MOL     -0.039328
     46 C16        -2.1070    2.2470   -3.2380 c         1 MOL      0.713259
     47 O7         -2.7430    1.7570   -2.3040 o         1 MOL     -0.756045
     48 O8         -1.3500    1.5250   -3.9530 o         1 MOL     -0.756045
     49 H21        -1.6510    3.6280   -0.8710 hn        1 MOL      0.092965
     50 H22        -2.5060    5.7920   -2.7000 h1        1 MOL      0.128062
     51 H23        -1.1430    4.1120   -3.9100 hc        1 MOL      0.033690
     52 H24        -2.6860    3.9580   -4.5130 hc        1 MOL      0.033690
     53 N5         -4.1770    4.0090   -0.8100 n         1 MOL     -0.122003
     54 C17        -5.4370    3.9230   -0.1360 c3        1 MOL     -0.348621
     55 C18        -6.3070    2.8290   -0.7510 c         1 MOL      0.505176
     56 O9         -7.5160    3.0230   -0.9170 o         1 MOL     -0.535808
     57 H25        -3.3580    3.6410   -0.3290 hn        1 MOL      0.237020
     58 H26        -6.0040    4.8240   -0.3200 h1        1 MOL      0.155435
     59 H27        -5.2240    3.7550    0.9230 h1        1 MOL      0.155435
     60 N6         -5.7050    1.7450   -1.2050 n         1 MOL     -0.067904
     61 C19        -6.3920    0.5560   -1.5870 c3        1 MOL     -0.173609
     62 C20        -6.6990   -0.3150   -0.3790 c         1 MOL      0.404463
     63 O10        -7.6130   -1.1530   -0.3420 o         1 MOL     -0.497562
     64 C21        -5.7140   -0.2720   -2.7160 c3        1 MOL      0.024834
     65 C22        -4.3860   -0.9620   -2.3740 c         1 MOL      0.642312
     66 N7         -4.0040   -1.8790   -3.1870 n         1 MOL     -0.918527
     67 O11        -3.8260   -0.7630   -1.3490 o         1 MOL     -0.512835
     68 H28        -4.7000    1.6790   -1.1440 hn        1 MOL      0.104972
     69 H29        -7.3750    0.8940   -1.8970 h1        1 MOL      0.121197
     70 H30        -5.5380    0.3160   -3.6090 hc        1 MOL      0.031353
     71 H31        -6.3650   -1.0560   -3.0950 hc        1 MOL      0.031353
     72 H32        -4.6430   -2.0680   -3.9460 hn        1 MOL      0.410354
     73 H33        -3.2130   -2.4510   -2.8990 hn        1 MOL      0.410354
     74 N8         -6.0230   -0.0610    0.7710 n         1 MOL     -0.207784
     75 C23        -6.1140   -0.8200    2.0650 c3        1 MOL     -0.280058
     76 C24        -4.9820   -1.8850    2.2800 c         1 MOL      0.720150
     77 O12        -5.1140   -2.5980    3.2310 o         1 MOL     -0.607793
     78 H34        -5.4120    0.7430    0.7160 hn        1 MOL      0.248342
     79 H35        -7.0550   -1.3760    2.0780 h1        1 MOL      0.139989
     80 H36        -6.1290   -0.1890    2.9570 h1        1 MOL      0.139989
     81 N9         -4.0000   -2.0260    1.4200 n         1 MOL     -0.568519
     82 C25        -2.9980   -3.0840    1.5050 c3        1 MOL      0.312755
     83 C26        -1.6660   -2.5010    1.3890 c         1 MOL      0.585676
     84 O13        -1.4090   -1.5650    0.5990 o         1 MOL     -0.634394
     85 C27        -3.2540   -4.1430    0.3900 c3        1 MOL     -0.021152
     86 C28        -4.6720   -4.6760    0.4080 ca        1 MOL     -0.201163
     87 C29        -5.6910   -4.0430   -0.3260 ca        1 MOL      0.010159
     88 C30        -5.0000   -5.8120    1.2510 ca        1 MOL      0.010159
     89 C31        -6.9880   -4.6340   -0.3040 ca        1 MOL     -0.330273
     90 C32        -6.2830   -6.3660    1.1990 ca        1 MOL     -0.330273
     91 C33        -7.3230   -5.7750    0.4460 ca        1 MOL      0.431572
     92 O14        -8.5820   -6.3160    0.3630 oh        1 MOL     -0.516464
     93 H37        -4.0270   -1.4540    0.5910 hn        1 MOL      0.294462
     94 H38        -2.9690   -3.5590    2.4870 h1        1 MOL      0.013068
     95 H39        -2.5380   -4.9460    0.5460 hc        1 MOL      0.022816
     96 H40        -3.0070   -3.7710   -0.6080 hc        1 MOL      0.022816
     97 H41        -5.5390   -3.1180   -0.8610 ha        1 MOL      0.087669
     98 H42        -4.2460   -6.4330    1.7160 ha        1 MOL      0.087669
     99 H43        -7.7950   -4.1270   -0.7990 ha        1 MOL      0.144431
    100 H44        -6.4570   -7.3060    1.7000 ha        1 MOL      0.144431
    101 H45        -8.7960   -7.0080    0.9880 ho        1 MOL      0.379728
    102 N10        -0.6560   -3.0850    2.1090 n         1 MOL     -0.721585
    103 C34         0.7650   -2.6920    2.0480 c3        1 MOL      0.172369
    104 C35         1.5430   -3.6610    1.1420 c         1 MOL      0.581819
    105 O15         1.5410   -4.8730    1.3670 o         1 MOL     -0.563899
    106 C36         1.2120   -2.5760    3.5520 c3        1 MOL      0.076856
    107 C37         0.6230   -1.2700    4.1800 c3        1 MOL      0.018254
    108 C38         2.7910   -2.4710    3.6440 c3        1 MOL     -0.388951
    109 C39         1.0270   -1.0920    5.6150 c3        1 MOL     -0.121793
    110 H46        -0.9420   -3.7860    2.7770 hn        1 MOL      0.347703
    111 H47         0.8500   -1.6630    1.6760 h1        1 MOL      0.056989
    112 H48         0.8180   -3.4340    4.0870 hc        1 MOL      0.031956
    113 H49        -0.4660   -1.2430    4.0970 hc        1 MOL      0.039553
    114 H50         0.8590   -0.3040    3.7400 hc        1 MOL      0.039553
    115 H51         3.1190   -3.3580    3.1070 hc        1 MOL      0.105906
    116 H52         2.9530   -1.6080    2.9890 hc        1 MOL      0.105906
    117 H53         3.3250   -2.3760    4.5860 hc        1 MOL      0.105906
    118 H54         2.0940   -1.0760    5.8240 hc        1 MOL      0.027388
    119 H55         0.4560   -0.2530    6.0220 hc        1 MOL      0.027388
    120 H56         0.6340   -1.9740    6.1320 hc        1 MOL      0.027388
    121 N11         2.3980   -3.1160    0.2590 n         1 MOL     -0.367556
    122 C40         3.2050   -3.8570   -0.7850 c3        1 MOL      0.288092
    123 C41         4.7280   -3.7290   -0.4580 c         1 MOL      0.347420
    124 O16         5.1970   -2.7210    0.1450 o         1 MOL     -0.450026
    125 C42         2.9210   -3.3210   -2.1640 c3        1 MOL     -0.419578
    126 O17         3.4760   -2.0190   -2.3610 oh        1 MOL     -0.083223
    127 H57         2.1040   -2.2080   -0.0730 hn        1 MOL      0.167511
    128 H58         2.9140   -4.9060   -0.7920 h1        1 MOL      0.009451
    129 H59         1.8330   -3.2840   -2.2480 h1        1 MOL      0.140922
    130 H60         3.3500   -3.9860   -2.9130 h1        1 MOL      0.140922
    131 H61         3.2600   -1.7940   -3.2690 ho        1 MOL      0.260609
    132 N12         5.4880   -4.4960   -1.1450 n         1 MOL     -0.312297
    133 C43         6.9620   -4.4480   -1.0650 c3        1 MOL      0.101179
    134 C44         7.6640   -3.2320   -1.7700 c         1 MOL      0.443095
    135 O18         8.7800   -2.8190   -1.4770 o         1 MOL     -0.482213
    136 C45         7.5090   -5.8460   -1.2960 c3        1 MOL     -0.353947
    137 H62         5.1590   -5.2040   -1.7830 hn        1 MOL      0.262785
    138 H63         7.1610   -4.2710   -0.0110 h1        1 MOL      0.142050
    139 H64         7.0480   -6.3940   -0.4600 hc        1 MOL      0.109789
    140 H65         7.1200   -6.2530   -2.2250 hc        1 MOL      0.109789
    141 H66         8.5830   -5.9510   -1.1970 hc        1 MOL      0.109789
    142 N13         6.9000   -2.4590   -2.6560 n         1 MOL     -0.382614
    143 C46         7.3100   -1.0770   -3.0960 c3        1 MOL      0.071475
    144 C47         7.0960   -0.1130   -1.9390 c         1 MOL      0.415649
    145 O19         7.9310    0.6520   -1.6020 o         1 MOL     -0.501099
    146 C48         6.5810   -0.7760   -4.4710 c3        1 MOL     -0.237583
    147 H67         6.0010   -2.8240   -2.9390 hn        1 MOL      0.208418
    148 H68         8.3860   -1.0390   -3.2300 h1        1 MOL      0.116376
    149 H69         5.5120   -0.9180   -4.3440 hc        1 MOL      0.076114
    150 H70         6.7740    0.2020   -4.9210 hc        1 MOL      0.076114
    151 H71         6.9420   -1.4780   -5.2260 hc        1 MOL      0.076114
    152 N14         5.9340   -0.2210   -1.2400 n         1 MOL      0.069866
    153 C49         5.4940    0.6150   -0.0900 c3        1 MOL     -0.222696
    154 C50         6.3080    0.3770    1.1550 c         1 MOL      0.518125
    155 O20         6.6620    1.3000    1.8690 o         1 MOL     -0.574688
    156 C51         3.9930    0.4910    0.0930 c3        1 MOL     -0.022927
    157 C52         3.1090    1.0780   -1.0990 c3        1 MOL      0.045737
    158 C53         1.5760    0.8780   -0.9580 c         1 MOL      0.783487
    159 O21         0.7950    1.7950   -1.3120 o         1 MOL     -0.687627
    160 O22         1.1490   -0.1870   -0.6350 o         1 MOL     -0.687627
    161 H72         5.3350   -1.0120   -1.4020 hn        1 MOL     -0.202546
    162 H73         5.7770    1.6290   -0.3500 h1        1 MOL      0.103653
    163 H74         3.6330    1.0950    0.9260 hc        1 MOL      0.034331
    164 H75         3.6090   -0.4750    0.4190 hc        1 MOL      0.034331
    165 H76         3.4270    0.5380   -1.9920 hc        1 MOL     -0.064113
    166 H77         3.2740    2.1350   -1.2770 hc        1 MOL     -0.064113
    167 N15         6.7180   -0.8830    1.3780 n         1 MOL     -0.115646
    168 C54         7.7230   -1.1370    2.4190 c3        1 MOL     -0.291083
    169 H78         8.2440   -2.0680    2.2000 h1        1 MOL      0.108968
    170 H79         8.4400   -0.3170    2.4410 h1        1 MOL      0.108968
    171 H80         7.2300   -1.2160    3.3880 h1        1 MOL      0.108968
    172 H81         6.3170   -1.6310    0.8320 hn        1 MOL      0.169026
    173 Ca1        -1.2740   -0.0900   -1.4820 Ca        1 MOL      1.768223
    174 O23         0.5380   -0.5140   -3.3790 oh        1 MOL     -0.886401
    175 H82         0.9290    0.1340   -3.9550 ho        1 MOL      0.428572
    176 H83         0.6430   -1.3430   -3.8460 ho        1 MOL      0.428572
    177 O24        -1.3240   -2.8300   -2.4800 oh        1 MOL     -0.886401
    178 H84        -1.8090   -3.6570   -2.4500 ho        1 MOL      0.428572
    179 H85        -0.6100   -2.9930   -3.0970 ho        1 MOL      0.428572
@<TRIPOS>BOND
     1    1    2 1   
     2    1    4 1   
     3    1    5 1   
     4    1    6 1   
     5    2    3 2   
     6    2    7 1   
     7    7    8 1   
     8    7   15 1   
     9    8    9 1   
    10    8   11 1   
    11    8   16 1   
    12    9   10 2   
    13    9   19 1   
    14   11   12 1   
    15   11   17 1   
    16   11   18 1   
    17   12   13 1   
    18   12   14 1   
    19   19   20 1   
    20   19   28 1   
    21   20   21 1   
    22   20   23 1   
    23   20   29 1   
    24   21   22 2   
    25   21   41 1   
    26   23   24 1   
    27   23   30 1   
    28   23   31 1   
    29   24   25 1   
    30   24   32 1   
    31   24   33 1   
    32   25   26 1   
    33   25   34 1   
    34   25   35 1   
    35   26   27 1   
    36   26   36 1   
    37   26   37 1   
    38   27   38 1   
    39   27   39 1   
    40   27   40 1   
    41   41   42 1   
    42   41   49 1   
    43   42   43 1   
    44   42   45 1   
    45   42   50 1   
    46   43   44 2   
    47   43   53 1   
    48   45   46 1   
    49   45   51 1   
    50   45   52 1   
    51   46   47 1   
    52   46   48 1   
    53   53   54 1   
    54   53   57 1   
    55   54   55 1   
    56   54   58 1   
    57   54   59 1   
    58   55   56 2   
    59   55   60 1   
    60   60   61 1   
    61   60   68 1   
    62   61   62 1   
    63   61   64 1   
    64   61   69 1   
    65   62   63 2   
    66   62   74 1   
    67   64   65 1   
    68   64   70 1   
    69   64   71 1   
    70   65   66 1   
    71   65   67 2   
    72   66   72 1   
    73   66   73 1   
    74   74   75 1   
    75   74   78 1   
    76   75   76 1   
    77   75   79 1   
    78   75   80 1   
    79   76   77 2   
    80   76   81 1   
    81   81   82 1   
    82   81   93 1   
    83   82   83 1   
    84   82   85 1   
    85   82   94 1   
    86   83   84 2   
    87   83  102 1   
    88   85   86 1   
    89   85   95 1   
    90   85   96 1   
    91   86   87 ar  
    92   86   88 ar  
    93   87   89 ar  
    94   87   97 1   
    95   88   90 ar  
    96   88   98 1   
    97   89   91 ar  
    98   89   99 1   
    99   90   91 ar  
   100   90  100 1   
   101   91   92 1   
   102   92  101 1   
   103  102  103 1   
   104  102  110 1   
   105  103  104 1   
   106  103  106 1   
   107  103  111 1   
   108  104  105 2   
   109  104  121 1   
   110  106  107 1   
   111  106  108 1   
   112  106  112 1   
   113  107  109 1   
   114  107  113 1   
   115  107  114 1   
   116  108  115 1   
   117  108  116 1   
   118  108  117 1   
   119  109  118 1   
   120  109  119 1   
   121  109  120 1   
   122  121  122 1   
   123  121  127 1   
   124  122  123 1   
   125  122  125 1   
   126  122  128 1   
   127  123  124 2   
   128  123  132 1   
   129  125  126 1   
   130  125  129 1   
   131  125  130 1   
   132  126  131 1   
   133  132  133 1   
   134  132  137 1   
   135  133  134 1   
   136  133  136 1   
   137  133  138 1   
   138  134  135 2   
   139  134  142 1   
   140  136  139 1   
   141  136  140 1   
   142  136  141 1   
   143  142  143 1   
   144  142  147 1   
   145  143  144 1   
   146  143  146 1   
   147  143  148 1   
   148  144  145 2   
   149  144  152 1   
   150  146  149 1   
   151  146  150 1   
   152  146  151 1   
   153  152  153 1   
   154  152  161 1   
   155  153  154 1   
   156  153  156 1   
   157  153  162 1   
   158  154  155 2   
   159  154  167 1   
   160  156  157 1   
   161  156  163 1   
   162  156  164 1   
   163  157  158 1   
   164  157  165 1   
   165  157  166 1   
   166  158  159 1   
   167  158  160 1   
   168  167  168 1   
   169  167  172 1   
   170  168  169 1   
   171  168  170 1   
   172  168  171 1   
   173  174  175 1   
   174  174  176 1   
   175  177  178 1   
   176  177  179 1   
@<TRIPOS>SUBSTRUCTURE
     1 MOL         1 TEMP              0 ****  ****    0 ROOT
