@<TRIPOS>MOLECULE
MOL
  189   185     1     0     0
SMALL
resp


@<TRIPOS>ATOM
      1 C1         -0.3910    2.4860    6.0360 c3        1 MOL     -0.380638
      2 C2         -0.5790    2.2090    4.5260 c         1 MOL      0.767593
      3 O1          0.3210    2.4340    3.7770 o         1 MOL     -0.651084
      4 H1         -0.9760    3.3610    6.3200 hc        1 MOL      0.093831
      5 H2         -0.7290    1.6220    6.6090 hc        1 MOL      0.093831
      6 H3          0.6630    2.6700    6.2440 hc        1 MOL      0.093831
      7 N1         -1.8060    1.8540    4.1460 n         1 MOL     -0.629201
      8 C3         -2.2710    1.6790    2.7300 c3        1 MOL      0.250553
      9 C4         -2.3980    3.1330    2.1480 c         1 MOL      0.378944
     10 O2         -3.3100    3.9220    2.4240 o         1 MOL     -0.515883
     11 C5         -3.5280    0.9670    2.7870 c3        1 MOL     -0.151563
     12 C6         -4.1950    0.5500    1.4260 c         1 MOL      0.725898
     13 O3         -5.3790    0.1890    1.5740 o         1 MOL     -0.677962
     14 O4         -3.6600    0.7760    0.3590 o         1 MOL     -0.677962
     15 H4         -2.4870    1.7020    4.8700 hn        1 MOL      0.319457
     16 H5         -1.5440    1.1230    2.1300 h1        1 MOL      0.003816
     17 H6         -4.2290    1.5470    3.3960 hc        1 MOL      0.031814
     18 H7         -3.2200    0.0660    3.3180 hc        1 MOL      0.031814
     19 N2         -1.4560    3.4820    1.1820 n         1 MOL     -0.054240
     20 C7         -1.2930    4.8150    0.6920 c3        1 MOL     -0.145419
     21 C8         -2.2600    5.2650   -0.3270 c         1 MOL      0.517164
     22 O5         -2.5630    6.4370   -0.4820 o         1 MOL     -0.583532
     23 C9          0.1400    4.9860    0.2440 c3        1 MOL     -0.042520
     24 C10         1.1650    5.1120    1.3530 c3        1 MOL      0.043846
     25 C11         2.6010    5.3510    0.8480 c3        1 MOL     -0.017856
     26 C12         3.4800    5.7070    1.9750 c3        1 MOL      0.061131
     27 N3          4.8450    5.9350    1.5290 n4        1 MOL     -0.326007
     28 H8         -0.7960    2.7710    0.9240 hn        1 MOL      0.157851
     29 H9         -1.5030    5.5290    1.4790 h1        1 MOL      0.091657
     30 H10         0.2650    5.8960   -0.3350 hc        1 MOL      0.018206
     31 H11         0.3850    4.1700   -0.4350 hc        1 MOL      0.018206
     32 H12         1.1720    4.1410    1.8410 hc        1 MOL      0.014860
     33 H13         0.8610    5.9430    1.9920 hc        1 MOL      0.014860
     34 H14         2.6580    6.1330    0.1090 hc        1 MOL      0.008010
     35 H15         3.0520    4.4860    0.3620 hc        1 MOL      0.008010
     36 H16         3.4350    4.8740    2.6730 hx        1 MOL      0.071806
     37 H17         3.1330    6.5910    2.5190 hx        1 MOL      0.071806
     38 H18         5.4330    6.2150    2.3020 hn        1 MOL      0.307747
     39 H19         5.2060    5.1470    1.0150 hn        1 MOL      0.307747
     40 H20         4.8330    6.7550    0.9480 hn        1 MOL      0.307747
     41 N4         -2.8360    4.3160   -0.9800 n         1 MOL     -0.253486
     42 C13        -3.9290    4.4930   -2.0020 c3        1 MOL      0.017785
     43 C14        -5.2870    3.8890   -1.6190 c         1 MOL      0.487272
     44 O6         -6.2630    4.2000   -2.3340 o         1 MOL     -0.528539
     45 C15        -3.4590    4.0970   -3.4000 c3        1 MOL     -0.088891
     46 C16        -2.8880    2.6580   -3.5030 c         1 MOL      0.648150
     47 O7         -2.9990    1.9590   -2.4770 o         1 MOL     -0.660205
     48 O8         -2.4440    2.2240   -4.6130 o         1 MOL     -0.660205
     49 H21        -2.6460    3.3480   -0.7550 hn        1 MOL      0.128391
     50 H22        -4.1480    5.5550   -2.0300 h1        1 MOL      0.086123
     51 H23        -2.7030    4.8230   -3.7130 hc        1 MOL      0.031838
     52 H24        -4.2460    4.2660   -4.1380 hc        1 MOL      0.031838
     53 N5         -5.4430    3.0360   -0.5610 n         1 MOL     -0.312666
     54 C17        -6.7840    2.6090   -0.0770 c3        1 MOL     -0.073944
     55 C18        -7.4610    1.4500   -0.8580 c         1 MOL      0.436863
     56 O9         -8.6530    1.5750   -1.0510 o         1 MOL     -0.527946
     57 H25        -4.6230    2.6370   -0.1400 hn        1 MOL      0.228438
     58 H26        -7.3860    3.4800    0.1500 h1        1 MOL      0.103830
     59 H27        -6.5950    2.1890    0.9070 h1        1 MOL      0.103830
     60 N6         -6.7760    0.3990   -1.3420 n         1 MOL     -0.098588
     61 C19        -7.3870   -0.8220   -1.9620 c3        1 MOL     -0.021488
     62 C20        -7.6700   -1.9030   -0.8710 c         1 MOL      0.383126
     63 O10        -8.4240   -2.8700   -1.1250 o         1 MOL     -0.530184
     64 C21        -6.4530   -1.3600   -3.0220 c3        1 MOL     -0.158542
     65 C22        -4.9180   -1.3440   -2.6490 c         1 MOL      0.600383
     66 O11        -4.5850   -1.5410   -1.4550 o         1 MOL     -0.606624
     67 O12        -4.1190   -1.1630   -3.5550 o         1 MOL     -0.606624
     68 H28        -5.7670    0.4140   -1.3180 hn        1 MOL      0.123769
     69 H29        -8.3410   -0.4890   -2.3710 h1        1 MOL      0.100972
     70 H30        -6.5200   -0.7660   -3.9340 hc        1 MOL      0.056881
     71 H31        -6.7460   -2.3890   -3.2360 hc        1 MOL      0.056881
     72 N7         -7.0110   -1.6640    0.2760 n         1 MOL     -0.100411
     73 C23        -7.0540   -2.5250    1.4630 c3        1 MOL     -0.271161
     74 C24        -5.8560   -3.5030    1.6690 c         1 MOL      0.568393
     75 O13        -5.8090   -4.4100    2.4720 o         1 MOL     -0.571346
     76 H32        -6.4820   -0.8220    0.4500 hn        1 MOL      0.179481
     77 H33        -7.9180   -3.1830    1.3920 h1        1 MOL      0.117957
     78 H34        -7.0980   -1.8930    2.3540 h1        1 MOL      0.117957
     79 N8         -4.7350   -3.2030    0.9570 n         1 MOL     -0.162609
     80 C25        -3.6670   -4.1220    0.8270 c3        1 MOL     -0.168157
     81 C26        -2.3220   -3.4780    0.7840 c         1 MOL      0.758820
     82 O14        -2.3520   -2.3260    0.3720 o         1 MOL     -0.691588
     83 C27        -3.8030   -4.9430   -0.4320 c3        1 MOL      0.609651
     84 C28        -4.9800   -5.7810   -0.6390 c3        1 MOL     -0.399974
     85 O15        -3.7130   -4.0280   -1.6500 oh        1 MOL     -0.712401
     86 H35        -4.8050   -2.4460    0.2860 hn        1 MOL      0.029798
     87 H36        -3.5740   -4.8050    1.6620 h1        1 MOL      0.063228
     88 H37        -2.9610   -5.6250   -0.4710 h1        1 MOL     -0.053095
     89 H38        -4.2640   -3.2760   -1.4270 ho        1 MOL      0.438716
     90 H39        -5.8350   -5.1600   -0.8840 hc        1 MOL      0.090187
     91 H40        -4.7220   -6.4190   -1.4930 hc        1 MOL      0.090187
     92 H41        -4.9940   -6.3120    0.3100 hc        1 MOL      0.090187
     93 N9         -1.1950   -4.1040    1.2190 n         1 MOL     -0.786124
     94 C29         0.1160   -3.4060    1.2870 c3        1 MOL      0.461978
     95 C30         1.1360   -4.0420    0.3460 c         1 MOL      0.393846
     96 O16         1.1440   -5.2580    0.1890 o         1 MOL     -0.524762
     97 C31         0.4940   -3.4370    2.8030 c3        1 MOL      0.090074
     98 C32        -0.3070   -2.4210    3.5900 c3        1 MOL     -0.032433
     99 C33         1.9880   -3.2800    3.0030 c3        1 MOL     -0.374691
    100 C34         0.1800   -2.1580    4.9940 c3        1 MOL     -0.114433
    101 H42        -1.2960   -4.9950    1.6780 hn        1 MOL      0.326127
    102 H43         0.0330   -2.3550    0.9840 h1        1 MOL     -0.051354
    103 H44         0.2650   -4.4630    3.0970 hc        1 MOL      0.022428
    104 H45        -1.3540   -2.7320    3.5840 hc        1 MOL      0.027610
    105 H46        -0.3020   -1.4680    3.0600 hc        1 MOL      0.027610
    106 H47         2.1640   -3.5820    4.0300 hc        1 MOL      0.075019
    107 H48         2.4210   -4.0700    2.3810 hc        1 MOL      0.075019
    108 H49         2.2830   -2.2530    2.7780 hc        1 MOL      0.075019
    109 H50         1.0740   -1.5690    5.2150 hc        1 MOL      0.034338
    110 H51        -0.5930   -1.7230    5.6260 hc        1 MOL      0.034338
    111 H52         0.2850   -3.1610    5.4180 hc        1 MOL      0.034338
    112 N10         2.0770   -3.1990   -0.1450 n         1 MOL     -0.150075
    113 C35         3.2210   -3.5260   -0.9770 c3        1 MOL     -0.133095
    114 C36         4.5070   -2.9860   -0.2660 c         1 MOL      0.490623
    115 O17         4.5530   -2.2080    0.6810 o         1 MOL     -0.380873
    116 C37         3.0930   -2.9240   -2.3890 c3        1 MOL      0.439199
    117 C38         1.9950   -3.5250   -3.3130 c3        1 MOL     -0.446816
    118 O18         2.7520   -1.5420   -2.3620 oh        1 MOL     -0.669661
    119 H53         1.8270   -2.2260   -0.0200 hn        1 MOL      0.092687
    120 H54         3.4290   -4.5970   -1.0560 h1        1 MOL      0.092159
    121 H55         4.0540   -3.0400   -2.8870 h1        1 MOL     -0.016351
    122 H56         1.9030   -1.3530   -1.9560 ho        1 MOL      0.414340
    123 H57         2.0390   -4.6160   -3.2970 hc        1 MOL      0.127925
    124 H58         1.0170   -3.1780   -2.9650 hc        1 MOL      0.127925
    125 H59         2.1610   -3.2120   -4.3430 hc        1 MOL      0.127925
    126 N11         5.7420   -3.2690   -0.8010 n         1 MOL     -0.442266
    127 C39         7.0210   -2.8590   -0.2040 c3        1 MOL     -0.080466
    128 C40         7.1640   -1.3010    0.0140 c         1 MOL      0.219309
    129 O19         7.7360   -0.8950    1.1190 o         1 MOL     -0.466288
    130 C41         8.2510   -3.2780   -1.0520 c3        1 MOL      0.289285
    131 C42         8.6200   -4.7350   -0.7500 c3        1 MOL     -0.240613
    132 O20         8.1420   -3.1670   -2.4630 oh        1 MOL     -0.582941
    133 H60         5.8110   -3.9620   -1.5270 hn        1 MOL      0.321168
    134 H61         7.1130   -3.3370    0.7730 h1        1 MOL      0.174804
    135 H62         9.1370   -2.7770   -0.6680 h1        1 MOL      0.046053
    136 H63         8.9530   -2.7600   -2.7800 ho        1 MOL      0.378982
    137 H64         9.0580   -4.8100    0.2450 hc        1 MOL      0.067500
    138 H65         7.6880   -5.2910   -0.7830 hc        1 MOL      0.067500
    139 H66         9.3440   -5.0860   -1.4850 hc        1 MOL      0.067500
    140 N12         6.6870   -0.4060   -0.8770 n         1 MOL     -0.294011
    141 C43         6.7430    1.0690   -0.5310 c3        1 MOL     -0.000333
    142 C44         5.7350    1.5700    0.5100 c         1 MOL      0.479823
    143 O21         5.8150    2.7050    0.9780 o         1 MOL     -0.588228
    144 C45         6.8600    1.9520   -1.7830 c3        1 MOL     -0.328795
    145 C46         8.0660    1.6560   -2.5820 c3        1 MOL      0.341902
    146 C47         8.3400    2.5500   -3.8020 c3        1 MOL     -0.407179
    147 C48         9.6800    2.2260   -4.4140 c3        1 MOL     -0.043324
    148 N13        10.8840    2.4760   -3.5470 n4        1 MOL     -0.286465
    149 H67         6.4580   -0.6500   -1.8230 hn        1 MOL      0.290343
    150 H68         7.6910    1.2700   -0.0440 h1        1 MOL      0.109868
    151 H69         6.8320    3.0160   -1.5220 hc        1 MOL      0.107531
    152 H70         6.0000    1.7560   -2.4200 hc        1 MOL      0.107531
    153 H71         8.0740    0.6340   -2.9660 hc        1 MOL     -0.034057
    154 H72         8.8840    1.6350   -1.8640 hc        1 MOL     -0.034057
    155 H73         8.2890    3.6230   -3.6060 hc        1 MOL      0.148398
    156 H74         7.5640    2.2920   -4.5180 hc        1 MOL      0.148398
    157 H75         9.8410    2.9220   -5.2380 hx        1 MOL      0.134336
    158 H76         9.6780    1.2610   -4.9190 hx        1 MOL      0.134336
    159 H77        11.0150    1.7380   -2.8790 hn        1 MOL      0.266288
    160 H78        11.6740    2.8100   -4.0710 hn        1 MOL      0.266288
    161 H79        10.6270    3.2070   -2.8910 hn        1 MOL      0.266288
    162 N14         4.7960    0.6790    0.8730 n         1 MOL     -0.190214
    163 C49         3.8430    0.9090    1.9950 c3        1 MOL     -0.103336
    164 C50         4.1880    0.1840    3.2240 c         1 MOL      0.424597
    165 O22         3.8000    0.5330    4.3520 o         1 MOL     -0.553980
    166 C51         2.4880    0.4970    1.4850 c3        1 MOL      0.004858
    167 C52         1.9620    1.2560    0.2500 c3        1 MOL      0.148852
    168 C53         0.6990    0.6460   -0.1970 c         1 MOL      0.697074
    169 O23         0.6990   -0.5050   -0.6810 o         1 MOL     -0.742601
    170 O24        -0.3460    1.3280   -0.1870 o         1 MOL     -0.742601
    171 H80         4.9270   -0.2600    0.5190 hn        1 MOL      0.117648
    172 H81         3.7090    1.9350    2.3410 h1        1 MOL      0.132411
    173 H82         1.7130    0.6120    2.2520 hc        1 MOL      0.066877
    174 H83         2.4580   -0.5620    1.2260 hc        1 MOL      0.066877
    175 H84         2.6570    1.2660   -0.5860 hc        1 MOL     -0.039845
    176 H85         1.8750    2.3220    0.4370 hc        1 MOL     -0.039845
    177 N15         4.9530   -0.8490    3.1370 n         1 MOL     -0.086180
    178 C54         5.5190   -1.6610    4.2040 c3        1 MOL     -0.186258
    179 H86         6.3630   -2.2310    3.8180 h1        1 MOL      0.087670
    180 H87         5.8570   -1.0140    5.0140 h1        1 MOL      0.087670
    181 H88         4.7600   -2.3470    4.5800 h1        1 MOL      0.087670
    182 H89         5.2390   -1.0640    2.1930 hn        1 MOL      0.147259
    183 Ca1        -2.1600   -0.4010   -1.4780 Ca        1 MOL      1.778666
    184 O25        -1.2340   -2.7930   -2.6330 oh        1 MOL     -0.889680
    185 H90        -1.0330   -3.1370   -3.4980 ho        1 MOL      0.405350
    186 H91        -1.8560   -3.4300   -2.2610 ho        1 MOL      0.405350
    187 O26        -1.0870    0.1640   -3.8590 oh        1 MOL     -0.889680
    188 H92        -0.5890   -0.0750   -4.6390 ho        1 MOL      0.405350
    189 H93        -1.4380    1.0340   -4.0390 ho        1 MOL      0.405350
@<TRIPOS>BOND
     1    1    2 1   
     2    1    4 1   
     3    1    5 1   
     4    1    6 1   
     5    2    3 2   
     6    2    7 1   
     7    7    8 1   
     8    7   15 1   
     9    8    9 1   
    10    8   11 1   
    11    8   16 1   
    12    9   10 2   
    13    9   19 1   
    14   11   12 1   
    15   11   17 1   
    16   11   18 1   
    17   12   13 1   
    18   12   14 1   
    19   19   20 1   
    20   19   28 1   
    21   20   21 1   
    22   20   23 1   
    23   20   29 1   
    24   21   22 2   
    25   21   41 1   
    26   23   24 1   
    27   23   30 1   
    28   23   31 1   
    29   24   25 1   
    30   24   32 1   
    31   24   33 1   
    32   25   26 1   
    33   25   34 1   
    34   25   35 1   
    35   26   27 1   
    36   26   36 1   
    37   26   37 1   
    38   27   38 1   
    39   27   39 1   
    40   27   40 1   
    41   41   42 1   
    42   41   49 1   
    43   42   43 1   
    44   42   45 1   
    45   42   50 1   
    46   43   44 2   
    47   43   53 1   
    48   45   46 1   
    49   45   51 1   
    50   45   52 1   
    51   46   47 1   
    52   46   48 1   
    53   53   54 1   
    54   53   57 1   
    55   54   55 1   
    56   54   58 1   
    57   54   59 1   
    58   55   56 2   
    59   55   60 1   
    60   60   61 1   
    61   60   68 1   
    62   61   62 1   
    63   61   64 1   
    64   61   69 1   
    65   62   63 2   
    66   62   72 1   
    67   64   65 1   
    68   64   70 1   
    69   64   71 1   
    70   65   66 1   
    71   65   67 1   
    72   72   73 1   
    73   72   76 1   
    74   73   74 1   
    75   73   77 1   
    76   73   78 1   
    77   74   75 2   
    78   74   79 1   
    79   79   80 1   
    80   79   86 1   
    81   80   81 1   
    82   80   83 1   
    83   80   87 1   
    84   81   82 2   
    85   81   93 1   
    86   83   84 1   
    87   83   85 1   
    88   83   88 1   
    89   84   90 1   
    90   84   91 1   
    91   84   92 1   
    92   85   89 1   
    93   93   94 1   
    94   93  101 1   
    95   94   95 1   
    96   94   97 1   
    97   94  102 1   
    98   95   96 2   
    99   95  112 1   
   100   97   98 1   
   101   97   99 1   
   102   97  103 1   
   103   98  100 1   
   104   98  104 1   
   105   98  105 1   
   106   99  106 1   
   107   99  107 1   
   108   99  108 1   
   109  100  109 1   
   110  100  110 1   
   111  100  111 1   
   112  112  113 1   
   113  112  119 1   
   114  113  114 1   
   115  113  116 1   
   116  113  120 1   
   117  114  115 2   
   118  114  126 1   
   119  116  117 1   
   120  116  118 1   
   121  116  121 1   
   122  117  123 1   
   123  117  124 1   
   124  117  125 1   
   125  118  122 1   
   126  126  127 1   
   127  126  133 1   
   128  127  128 1   
   129  127  130 1   
   130  127  134 1   
   131  128  129 2   
   132  128  140 1   
   133  130  131 1   
   134  130  132 1   
   135  130  135 1   
   136  131  137 1   
   137  131  138 1   
   138  131  139 1   
   139  132  136 1   
   140  140  141 1   
   141  140  149 1   
   142  141  142 1   
   143  141  144 1   
   144  141  150 1   
   145  142  143 2   
   146  142  162 1   
   147  144  145 1   
   148  144  151 1   
   149  144  152 1   
   150  145  146 1   
   151  145  153 1   
   152  145  154 1   
   153  146  147 1   
   154  146  155 1   
   155  146  156 1   
   156  147  148 1   
   157  147  157 1   
   158  147  158 1   
   159  148  159 1   
   160  148  160 1   
   161  148  161 1   
   162  162  163 1   
   163  162  171 1   
   164  163  164 1   
   165  163  166 1   
   166  163  172 1   
   167  164  165 2   
   168  164  177 1   
   169  166  167 1   
   170  166  173 1   
   171  166  174 1   
   172  167  168 1   
   173  167  175 1   
   174  167  176 1   
   175  168  169 1   
   176  168  170 1   
   177  177  178 1   
   178  177  182 1   
   179  178  179 1   
   180  178  180 1   
   181  178  181 1   
   182  184  185 1   
   183  184  186 1   
   184  187  188 1   
   185  187  189 1   
@<TRIPOS>SUBSTRUCTURE
     1 MOL         1 TEMP              0 ****  ****    0 ROOT
