@<TRIPOS>MOLECULE
MOL
  179   176     1     0     0
SMALL
resp


@<TRIPOS>ATOM
      1 C1          1.1730    2.9160    6.7730 c3        1 MOL     -0.242465
      2 C2          0.9930    2.4440    5.3570 c         1 MOL      0.735081
      3 O1          1.9550    2.2420    4.6150 o         1 MOL     -0.606679
      4 H1          2.2230    3.1500    6.9470 hc        1 MOL      0.065010
      5 H2          0.5700    3.8090    6.9380 hc        1 MOL      0.065010
      6 H3          0.8570    2.1320    7.4610 hc        1 MOL      0.065010
      7 N1         -0.1680    2.4220    4.7420 n         1 MOL     -0.620582
      8 C3         -0.4850    2.2650    3.2950 c3        1 MOL      0.110681
      9 C4         -0.4000    3.5780    2.4710 c         1 MOL      0.624154
     10 O2         -0.9070    4.6120    2.9580 o         1 MOL     -0.533980
     11 C5         -1.7530    1.4260    3.3290 c3        1 MOL     -0.050367
     12 C6         -2.1980    0.9400    1.9160 c         1 MOL      0.751288
     13 O3         -3.1900    0.2030    1.6390 o         1 MOL     -0.749185
     14 O4         -1.5870    1.3920    0.9140 o         1 MOL     -0.749185
     15 H4         -0.9630    2.6010    5.3460 hn        1 MOL      0.300402
     16 H5          0.1320    1.5400    2.7620 h1        1 MOL      0.016392
     17 H6         -2.4790    2.0460    3.8600 hc        1 MOL      0.006097
     18 H7         -1.6470    0.5060    3.9130 hc        1 MOL      0.006097
     19 N2          0.1840    3.5730    1.1820 n         1 MOL     -0.364437
     20 C7          0.4600    4.8160    0.4040 c3        1 MOL     -0.068479
     21 C8         -0.7680    5.3390   -0.3970 c         1 MOL      0.481970
     22 O5         -0.9940    6.4720   -0.6450 o         1 MOL     -0.565503
     23 C9          1.7680    4.8090   -0.4590 c3        1 MOL     -0.168439
     24 C10         2.2770    6.1110   -0.9220 c3        1 MOL      0.102639
     25 C11         3.5500    5.8740   -1.7620 c3        1 MOL     -0.080190
     26 C12         4.0080    7.2010   -2.3820 c3        1 MOL     -0.218177
     27 N3          3.0860    7.6160   -3.4640 n4        1 MOL     -0.296164
     28 H8          0.7390    2.7650    0.9510 hn        1 MOL      0.247872
     29 H9          0.6650    5.5520    1.1910 h1        1 MOL      0.087638
     30 H10         1.5810    4.1350   -1.2970 hc        1 MOL      0.106309
     31 H11         2.5630    4.4850    0.2050 hc        1 MOL      0.106309
     32 H12         2.5070    6.8730   -0.1840 hc        1 MOL      0.006278
     33 H13         1.5770    6.6290   -1.5770 hc        1 MOL      0.006278
     34 H14         3.3920    5.1240   -2.5350 hc        1 MOL      0.079078
     35 H15         4.3660    5.5360   -1.1250 hc        1 MOL      0.079078
     36 H16         4.9770    6.9980   -2.8330 hx        1 MOL      0.171305
     37 H17         4.0390    7.8870   -1.5320 hx        1 MOL      0.171305
     38 H18         2.1360    7.5600   -3.1500 hn        1 MOL      0.317050
     39 H19         3.1250    8.5790   -3.7890 hn        1 MOL      0.317050
     40 H20         3.1820    7.0020   -4.2610 hn        1 MOL      0.317050
     41 N4         -1.7020    4.4710   -0.7180 n         1 MOL     -0.198906
     42 C13        -3.0480    4.7390   -1.2310 c3        1 MOL     -0.004132
     43 C14        -4.1930    4.1680   -0.3920 c         1 MOL      0.447691
     44 O6         -5.3370    4.5620   -0.6070 o         1 MOL     -0.543130
     45 C15        -3.2220    4.2000   -2.6550 c3        1 MOL     -0.371573
     46 C16        -2.9060    2.7680   -2.8250 c         1 MOL      0.670426
     47 O7         -2.9330    1.9710   -1.8450 o         1 MOL     -0.673527
     48 O8         -2.5560    2.4050   -3.9930 o         1 MOL     -0.673527
     49 H21        -1.3320    3.5410   -0.6760 hn        1 MOL      0.203416
     50 H22        -3.1770    5.8120   -1.3120 h1        1 MOL      0.130575
     51 H23        -2.7190    4.8570   -3.3760 hc        1 MOL      0.120133
     52 H24        -4.2700    4.2550   -2.9750 hc        1 MOL      0.120133
     53 N5         -3.9570    3.3270    0.6490 n         1 MOL     -0.150864
     54 C17        -4.9900    2.9440    1.5820 c3        1 MOL     -0.108447
     55 C18        -6.0800    1.9070    1.2000 c         1 MOL      0.507870
     56 O9         -7.1580    1.9620    1.7670 o         1 MOL     -0.550171
     57 H25        -3.0130    2.9560    0.6700 hn        1 MOL      0.038748
     58 H26        -5.4760    3.8330    1.9810 h1        1 MOL      0.083675
     59 H27        -4.4470    2.4250    2.3750 h1        1 MOL      0.083675
     60 N6         -5.8120    1.0550    0.1700 n         1 MOL     -0.202585
     61 C19        -6.7140   -0.0230   -0.2290 c3        1 MOL      0.044006
     62 C20        -6.7420   -1.2980    0.6250 c         1 MOL      0.469286
     63 O10        -7.4510   -2.1970    0.2310 o         1 MOL     -0.481050
     64 C21        -6.4740   -0.1620   -1.7720 c3        1 MOL     -0.419002
     65 C22        -5.0600   -0.5420   -2.1860 c         1 MOL      0.808887
     66 N7         -4.7620   -0.3600   -3.4490 n         1 MOL     -0.600347
     67 O11        -4.1750   -0.9110   -1.4150 o         1 MOL     -0.672892
     68 H28        -4.9590    1.1270   -0.3730 hn        1 MOL      0.187072
     69 H29        -7.6850    0.3520    0.0950 h1        1 MOL      0.086135
     70 H30        -6.7090    0.8250   -2.1650 hc        1 MOL      0.132833
     71 H31        -7.1220   -0.9350   -2.1730 hc        1 MOL      0.132833
     72 H32        -5.5700   -0.1890   -4.0200 hn        1 MOL      0.286111
     73 H33        -3.9020   -0.6450   -3.8980 hn        1 MOL      0.286111
     74 N8         -5.9700   -1.4110    1.7820 n         1 MOL     -0.322199
     75 C23        -6.1340   -2.4970    2.6460 c3        1 MOL     -0.113759
     76 C24        -5.1100   -3.5910    2.4190 c         1 MOL      0.402255
     77 O12        -5.1620   -4.6360    3.0570 o         1 MOL     -0.559044
     78 H34        -5.2430   -0.7230    1.8990 hn        1 MOL      0.233774
     79 H35        -7.1050   -2.9820    2.6160 h1        1 MOL      0.109512
     80 H36        -6.1570   -2.1680    3.6820 h1        1 MOL      0.109512
     81 N9         -4.0890   -3.4020    1.5890 n         1 MOL     -0.099784
     82 C25        -2.8540   -4.2110    1.3780 c3        1 MOL     -0.091606
     83 C26        -1.7220   -3.2700    1.0510 c         1 MOL      0.284844
     84 O13        -1.8700   -2.2490    0.3610 o         1 MOL     -0.511174
     85 C27        -3.1150   -5.2200    0.2410 c3        1 MOL      0.098949
     86 C28        -3.6150   -4.6180   -1.0390 ca        1 MOL      0.007456
     87 C29        -2.6960   -4.5630   -2.1500 ca        1 MOL     -0.128187
     88 C30        -4.9390   -4.1810   -1.2040 ca        1 MOL     -0.128187
     89 C31        -3.2580   -4.2000   -3.4010 ca        1 MOL     -0.361221
     90 C32        -5.4580   -3.7680   -2.4630 ca        1 MOL     -0.361221
     91 C33        -4.6180   -3.8150   -3.5700 ca        1 MOL      0.471339
     92 O14        -5.1230   -3.6270   -4.8200 oh        1 MOL     -0.519183
     93 H37        -4.1050   -2.5150    1.0930 hn        1 MOL      0.222675
     94 H38        -2.6690   -4.7240    2.3190 h1        1 MOL      0.077027
     95 H39        -3.7220   -6.0890    0.5110 hc        1 MOL      0.002244
     96 H40        -2.1440   -5.6300   -0.0150 hc        1 MOL      0.002244
     97 H41        -1.7060   -4.9690   -2.1190 ha        1 MOL      0.146891
     98 H42        -5.6090   -4.2470   -0.3700 ha        1 MOL      0.146891
     99 H43        -2.6400   -4.3050   -4.2850 ha        1 MOL      0.149518
    100 H44        -6.5230   -3.5840   -2.4040 ha        1 MOL      0.149518
    101 H45        -4.5840   -3.9380   -5.5480 ho        1 MOL      0.359415
    102 N10        -0.5310   -3.6420    1.5680 n         1 MOL     -0.002807
    103 C34         0.7660   -2.9530    1.3500 c3        1 MOL     -0.466912
    104 C35         1.7740   -3.9490    0.7260 c         1 MOL      0.576017
    105 O15         1.5940   -5.1510    0.7530 o         1 MOL     -0.544993
    106 C36         1.2720   -2.2070    2.6130 c3        1 MOL     -0.016941
    107 C37         1.7250   -3.3080    3.5900 c3        1 MOL      0.013049
    108 C38         0.2590   -1.1780    3.0270 c3        1 MOL      0.054485
    109 C39         2.2060   -2.7050    4.9490 c3        1 MOL     -0.157857
    110 H46        -0.3960   -4.4850    2.1030 hn        1 MOL      0.204505
    111 H47         0.4620   -2.2570    0.5570 h1        1 MOL      0.290623
    112 H48         2.1840   -1.6790    2.3320 hc        1 MOL      0.003453
    113 H49         2.5360   -3.9490    3.2370 hc        1 MOL      0.027357
    114 H50         0.8940   -3.9460    3.8570 hc        1 MOL      0.027357
    115 H51         0.7970   -0.6090    3.7870 hc        1 MOL      0.008031
    116 H52        -0.1360   -0.6110    2.1840 hc        1 MOL      0.008031
    117 H53        -0.5820   -1.7150    3.4480 hc        1 MOL      0.008031
    118 H54         1.4090   -2.3880    5.6190 hc        1 MOL      0.043794
    119 H55         2.8730   -3.4100    5.4560 hc        1 MOL      0.043794
    120 H56         2.8630   -1.8520    4.7880 hc        1 MOL      0.043794
    121 N11         2.7120   -3.3340    0.0740 n         1 MOL     -0.314031
    122 C40         3.7840   -4.0350   -0.6970 c3        1 MOL      0.118991
    123 C41         5.1720   -3.4030   -0.3250 c         1 MOL      0.469909
    124 O16         5.2710   -2.3890    0.3490 o         1 MOL     -0.487112
    125 C42         3.3860   -4.0610   -2.1250 c3        1 MOL     -0.010269
    126 O17         3.2050   -2.7470   -2.6610 oh        1 MOL     -0.574889
    127 H57         2.8120   -2.3260    0.1840 hn        1 MOL      0.252126
    128 H58         3.8680   -5.0670   -0.3480 h1        1 MOL      0.042630
    129 H59         2.4560   -4.6260   -2.2230 h1        1 MOL      0.055410
    130 H60         4.1650   -4.5580   -2.6980 h1        1 MOL      0.055410
    131 H61         3.1370   -2.8050   -3.6160 ho        1 MOL      0.411518
    132 N12         6.2860   -4.0170   -0.6380 n         1 MOL     -0.386921
    133 C43         7.6390   -3.6150   -0.2440 c3        1 MOL      0.065799
    134 C44         7.9570   -2.1900   -0.6130 c         1 MOL      0.573853
    135 O18         8.5710   -1.5110    0.2030 o         1 MOL     -0.546140
    136 C45         8.6850   -4.6830   -0.6440 c3        1 MOL     -0.301442
    137 H62         6.1600   -4.8580   -1.1780 hn        1 MOL      0.267223
    138 H63         7.6360   -3.4430    0.8310 h1        1 MOL      0.099834
    139 H64         8.7830   -4.6330   -1.7300 hc        1 MOL      0.101504
    140 H65         9.6190   -4.5400   -0.1060 hc        1 MOL      0.101504
    141 H66         8.2580   -5.6700   -0.4420 hc        1 MOL      0.101504
    142 N13         7.4990   -1.6640   -1.7540 n         1 MOL     -0.455104
    143 C46         7.7040   -0.3190   -2.1620 c3        1 MOL      0.132851
    144 C47         6.8900    0.6650   -1.3800 c         1 MOL      0.347137
    145 O19         7.2650    1.8250   -1.3110 o         1 MOL     -0.532442
    146 C48         7.3740   -0.2550   -3.6490 c3        1 MOL     -0.433515
    147 H67         6.9250   -2.3200   -2.2720 hn        1 MOL      0.239532
    148 H68         8.7410   -0.0310   -2.0050 h1        1 MOL      0.108236
    149 H69         6.3370   -0.5650   -3.8090 hc        1 MOL      0.127250
    150 H70         7.4310    0.7750   -3.9950 hc        1 MOL      0.127250
    151 H71         8.1840   -0.7200   -4.2080 hc        1 MOL      0.127250
    152 N14         5.7330    0.2970   -0.8950 n         1 MOL      0.009758
    153 C49         4.9950    1.1870   -0.0090 c3        1 MOL     -0.266055
    154 C50         5.6010    1.1450    1.3770 c         1 MOL      0.617905
    155 O20         5.7720    2.1930    2.0200 o         1 MOL     -0.564456
    156 C51         3.5130    0.8300   -0.0380 c3        1 MOL      0.023739
    157 C52         2.7850    1.1760   -1.3620 c3        1 MOL      0.024958
    158 C53         1.3090    0.8380   -1.4000 c         1 MOL      0.744229
    159 O21         0.5900    0.9360   -2.3780 o         1 MOL     -0.779565
    160 O22         0.7380    0.3610   -0.3700 o         1 MOL     -0.779565
    161 H72         5.3430   -0.6130   -1.0640 hn        1 MOL      0.167645
    162 H73         5.1410    2.1850   -0.4440 h1        1 MOL      0.094493
    163 H74         2.9880    1.3500    0.7640 hc        1 MOL      0.023883
    164 H75         3.5020   -0.2370    0.1930 hc        1 MOL      0.023883
    165 H76         3.3540    0.7540   -2.1900 hc        1 MOL     -0.057899
    166 H77         2.7760    2.2620   -1.4660 hc        1 MOL     -0.057899
    167 N15         6.1020    0.0380    1.8560 n         1 MOL     -0.256156
    168 C54         6.9300   -0.0160    3.1010 c3        1 MOL     -0.249818
    169 H78         7.9510    0.2890    2.8720 h1        1 MOL      0.112559
    170 H79         6.5100    0.6580    3.8470 h1        1 MOL      0.112559
    171 H80         6.9340   -1.0340    3.4910 h1        1 MOL      0.112559
    172 H81         6.0850   -0.8330    1.3340 hn        1 MOL      0.221274
    173 Ca1        -1.6500   -0.0420   -1.1070 Ca        1 MOL      1.769284
    174 O23        -1.8210   -0.2760   -4.0150 oh        1 MOL     -0.866908
    175 H82        -2.1850    0.6030   -4.1080 ho        1 MOL      0.410569
    176 H83        -1.0510   -0.2730   -4.5870 ho        1 MOL      0.410569
    177 O24         0.2480   -2.3670   -1.9890 oh        1 MOL     -0.866908
    178 H84         1.1860   -2.4500   -2.1580 ho        1 MOL      0.410569
    179 H85        -0.1700   -2.8410   -2.6960 ho        1 MOL      0.410569
@<TRIPOS>BOND
     1    1    2 1   
     2    1    4 1   
     3    1    5 1   
     4    1    6 1   
     5    2    3 2   
     6    2    7 1   
     7    7    8 1   
     8    7   15 1   
     9    8    9 1   
    10    8   11 1   
    11    8   16 1   
    12    9   10 2   
    13    9   19 1   
    14   11   12 1   
    15   11   17 1   
    16   11   18 1   
    17   12   13 1   
    18   12   14 1   
    19   19   20 1   
    20   19   28 1   
    21   20   21 1   
    22   20   23 1   
    23   20   29 1   
    24   21   22 2   
    25   21   41 1   
    26   23   24 1   
    27   23   30 1   
    28   23   31 1   
    29   24   25 1   
    30   24   32 1   
    31   24   33 1   
    32   25   26 1   
    33   25   34 1   
    34   25   35 1   
    35   26   27 1   
    36   26   36 1   
    37   26   37 1   
    38   27   38 1   
    39   27   39 1   
    40   27   40 1   
    41   41   42 1   
    42   41   49 1   
    43   42   43 1   
    44   42   45 1   
    45   42   50 1   
    46   43   44 2   
    47   43   53 1   
    48   45   46 1   
    49   45   51 1   
    50   45   52 1   
    51   46   47 1   
    52   46   48 1   
    53   53   54 1   
    54   53   57 1   
    55   54   55 1   
    56   54   58 1   
    57   54   59 1   
    58   55   56 2   
    59   55   60 1   
    60   60   61 1   
    61   60   68 1   
    62   61   62 1   
    63   61   64 1   
    64   61   69 1   
    65   62   63 2   
    66   62   74 1   
    67   64   65 1   
    68   64   70 1   
    69   64   71 1   
    70   65   66 1   
    71   65   67 2   
    72   66   72 1   
    73   66   73 1   
    74   74   75 1   
    75   74   78 1   
    76   75   76 1   
    77   75   79 1   
    78   75   80 1   
    79   76   77 2   
    80   76   81 1   
    81   81   82 1   
    82   81   93 1   
    83   82   83 1   
    84   82   85 1   
    85   82   94 1   
    86   83   84 2   
    87   83  102 1   
    88   85   86 1   
    89   85   95 1   
    90   85   96 1   
    91   86   87 ar  
    92   86   88 ar  
    93   87   89 ar  
    94   87   97 1   
    95   88   90 ar  
    96   88   98 1   
    97   89   91 ar  
    98   89   99 1   
    99   90   91 ar  
   100   90  100 1   
   101   91   92 1   
   102   92  101 1   
   103  102  103 1   
   104  102  110 1   
   105  103  104 1   
   106  103  106 1   
   107  103  111 1   
   108  104  105 2   
   109  104  121 1   
   110  106  107 1   
   111  106  108 1   
   112  106  112 1   
   113  107  109 1   
   114  107  113 1   
   115  107  114 1   
   116  108  115 1   
   117  108  116 1   
   118  108  117 1   
   119  109  118 1   
   120  109  119 1   
   121  109  120 1   
   122  121  122 1   
   123  121  127 1   
   124  122  123 1   
   125  122  125 1   
   126  122  128 1   
   127  123  124 2   
   128  123  132 1   
   129  125  126 1   
   130  125  129 1   
   131  125  130 1   
   132  126  131 1   
   133  132  133 1   
   134  132  137 1   
   135  133  134 1   
   136  133  136 1   
   137  133  138 1   
   138  134  135 2   
   139  134  142 1   
   140  136  139 1   
   141  136  140 1   
   142  136  141 1   
   143  142  143 1   
   144  142  147 1   
   145  143  144 1   
   146  143  146 1   
   147  143  148 1   
   148  144  145 2   
   149  144  152 1   
   150  146  149 1   
   151  146  150 1   
   152  146  151 1   
   153  152  153 1   
   154  152  161 1   
   155  153  154 1   
   156  153  156 1   
   157  153  162 1   
   158  154  155 2   
   159  154  167 1   
   160  156  157 1   
   161  156  163 1   
   162  156  164 1   
   163  157  158 1   
   164  157  165 1   
   165  157  166 1   
   166  158  159 1   
   167  158  160 1   
   168  167  168 1   
   169  167  172 1   
   170  168  169 1   
   171  168  170 1   
   172  168  171 1   
   173  174  175 1   
   174  174  176 1   
   175  177  178 1   
   176  177  179 1   
@<TRIPOS>SUBSTRUCTURE
     1 MOL         1 TEMP              0 ****  ****    0 ROOT
