@<TRIPOS>MOLECULE
MOL
  183   181     1     0     0
SMALL
resp


@<TRIPOS>ATOM
      1 C1         -0.8600    2.2300    6.2200 c3        1 MOL     -0.282541
      2 C2         -1.1820    2.3670    4.7270 c         1 MOL      0.710606
      3 O1         -0.3510    2.8770    3.9730 o         1 MOL     -0.531730
      4 H1          0.2200    2.2690    6.3620 hc        1 MOL      0.062560
      5 H2         -1.3280    3.0460    6.7690 hc        1 MOL      0.062560
      6 H3         -1.2400    1.2780    6.5880 hc        1 MOL      0.062560
      7 N1         -2.4170    2.0660    4.3060 n         1 MOL     -0.580727
      8 C3         -2.7480    2.1310    2.8660 c3        1 MOL      0.101305
      9 C4         -2.8320    3.5320    2.2520 c         1 MOL      0.524512
     10 O2         -3.5490    4.3680    2.7870 o         1 MOL     -0.605923
     11 C5         -3.9710    1.2910    2.7240 c3        1 MOL     -0.104559
     12 C6         -4.0060    0.6800    1.3810 c         1 MOL      0.851463
     13 O3         -3.7020   -0.5280    1.2580 o         1 MOL     -0.772975
     14 O4         -3.9810    1.4320    0.3830 o         1 MOL     -0.772975
     15 H4         -3.1010    1.7900    5.0000 hn        1 MOL      0.314081
     16 H5         -1.9480    1.6020    2.3530 h1        1 MOL      0.049457
     17 H6         -4.8480    1.9070    2.8840 hc        1 MOL      0.014206
     18 H7         -4.1180    0.5020    3.4540 hc        1 MOL      0.014206
     19 N2         -2.1920    3.8900    1.1830 n         1 MOL     -0.191268
     20 C7         -2.3110    5.0980    0.4700 c3        1 MOL      0.016642
     21 C8         -3.3780    5.1320   -0.6920 c         1 MOL      0.398557
     22 O5         -3.9420    6.1590   -0.9970 o         1 MOL     -0.566584
     23 C9         -0.9050    5.5480    0.0340 c3        1 MOL      0.062035
     24 C10         0.1290    5.6430    1.2170 c3        1 MOL      0.330023
     25 C11        -0.8600    6.9330   -0.7000 c3        1 MOL     -0.357153
     26 C12        -0.2340    6.7390    2.2440 c3        1 MOL     -0.207308
     27 H8         -1.7870    3.1190    0.6720 hn        1 MOL      0.146735
     28 H9         -2.6980    5.7570    1.2470 h1        1 MOL      0.070906
     29 H10        -0.4730    4.7720   -0.5990 hc        1 MOL      0.031836
     30 H11         1.1220    5.8500    0.8140 hc        1 MOL     -0.071042
     31 H12         0.1870    4.7360    1.8150 hc        1 MOL     -0.071042
     32 H13         0.1560    7.2490   -0.9560 hc        1 MOL      0.080109
     33 H14        -1.4190    6.9240   -1.6340 hc        1 MOL      0.080109
     34 H15        -1.3760    7.7060   -0.1380 hc        1 MOL      0.080109
     35 H16         0.4380    6.5220    3.0710 hc        1 MOL      0.022483
     36 H17         0.0260    7.7080    1.8140 hc        1 MOL      0.022483
     37 H18        -1.2850    6.7420    2.5280 hc        1 MOL      0.022483
     38 N3         -3.7680    4.0090   -1.1840 n         1 MOL     -0.039373
     39 C13        -4.6680    3.8890   -2.3230 c3        1 MOL     -0.004892
     40 C14        -6.0660    3.3510   -1.9650 c         1 MOL      0.443582
     41 O6         -7.0650    3.7260   -2.6240 o         1 MOL     -0.563110
     42 C15        -4.0340    2.9610   -3.4420 c3        1 MOL     -0.215204
     43 C16        -3.4470    1.6460   -2.8970 c         1 MOL      0.672414
     44 O7         -2.1900    1.5870   -2.8920 o         1 MOL     -0.660282
     45 O8         -4.2460    0.7170   -2.5090 o         1 MOL     -0.660282
     46 H19        -3.5060    3.1380   -0.7390 hn        1 MOL      0.044052
     47 H20        -4.8280    4.8590   -2.7970 h1        1 MOL      0.093841
     48 H21        -3.2430    3.5040   -3.9630 hc        1 MOL      0.052167
     49 H22        -4.7170    2.5880   -4.2080 hc        1 MOL      0.052167
     50 N4         -6.1390    2.6380   -0.8240 n         1 MOL     -0.302717
     51 C17        -7.4350    2.1820   -0.3270 c3        1 MOL     -0.107326
     52 C18        -7.8680    0.8120   -0.6720 c         1 MOL      0.530215
     53 O9         -8.9430    0.4370   -0.1930 o         1 MOL     -0.602756
     54 H23        -5.3070    2.3120   -0.3530 hn        1 MOL      0.245633
     55 H24        -8.2720    2.7380   -0.7330 h1        1 MOL      0.087611
     56 H25        -7.4790    2.2990    0.7580 h1        1 MOL      0.087611
     57 N5         -7.0180   -0.0720   -1.2460 n         1 MOL     -0.280444
     58 C19        -7.3670   -1.5030   -1.4320 c3        1 MOL     -0.099923
     59 C20        -7.2880   -2.4590   -0.1720 c         1 MOL      0.443571
     60 O10        -7.9980   -3.4530   -0.0180 o         1 MOL     -0.547860
     61 C21        -6.6510   -2.1650   -2.6010 c3        1 MOL     -0.169071
     62 C22        -5.1570   -2.3850   -2.5730 c         1 MOL      0.646616
     63 O11        -4.5490   -1.9670   -1.5680 o         1 MOL     -0.689489
     64 O12        -4.6980   -3.0160   -3.5970 o         1 MOL     -0.689489
     65 H26        -6.1220    0.2210   -1.5850 hn        1 MOL      0.236663
     66 H27        -8.4150   -1.6300   -1.6960 h1        1 MOL      0.103586
     67 H28        -6.8230   -1.5440   -3.4840 hc        1 MOL      0.068593
     68 H29        -7.2590   -3.0370   -2.8400 hc        1 MOL      0.068593
     69 N6         -6.4850   -2.0230    0.7730 n         1 MOL     -0.034087
     70 C23        -6.3970   -2.6650    2.1120 c3        1 MOL     -0.073866
     71 C24        -5.2790   -3.7140    2.2840 c         1 MOL      0.613609
     72 O13        -5.4830   -4.8110    2.7850 o         1 MOL     -0.593706
     73 H30        -5.9090   -1.2120    0.5800 hn        1 MOL      0.101390
     74 H31        -7.3470   -3.1590    2.3390 h1        1 MOL      0.035954
     75 H32        -6.2130   -1.9400    2.9010 h1        1 MOL      0.035954
     76 N7         -4.1650   -3.4990    1.6600 n         1 MOL     -0.339996
     77 C25        -3.0250   -4.4150    1.5540 c3        1 MOL      0.028097
     78 C26        -1.7680   -3.6100    1.2710 c         1 MOL      0.683872
     79 O14        -1.7560   -2.7970    0.3400 o         1 MOL     -0.581048
     80 C27        -3.3440   -5.6370    0.5660 c3        1 MOL     -0.502919
     81 C28        -3.8540   -5.1180   -0.7920 c3        1 MOL     -0.024754
     82 C29        -3.8860   -6.1720   -1.8790 c         1 MOL      0.646731
     83 N8         -3.8890   -5.7240   -3.1130 n         1 MOL     -0.827713
     84 O15        -4.0070   -7.3540   -1.6400 o         1 MOL     -0.609015
     85 H33        -4.1040   -2.6720    1.0740 hn        1 MOL      0.144055
     86 H34        -2.8230   -4.7530    2.5650 h1        1 MOL      0.029663
     87 H35        -4.1280   -6.2430    1.0060 hc        1 MOL      0.169946
     88 H36        -2.4460   -6.2420    0.4650 hc        1 MOL      0.169946
     89 H37        -3.2370   -4.2590   -1.0490 hc        1 MOL      0.109401
     90 H38        -4.8650   -4.7340   -0.6410 hc        1 MOL      0.109401
     91 H39        -3.9250   -4.7630   -3.4000 hn        1 MOL      0.352096
     92 H40        -4.1320   -6.3040   -3.9110 hn        1 MOL      0.352096
     93 N9         -0.7510   -3.6990    2.1970 n         1 MOL     -0.582170
     94 C30         0.3920   -2.8200    2.3150 c3        1 MOL      0.119624
     95 C31         1.5140   -3.3300    1.3940 c         1 MOL      0.403079
     96 O16         2.1440   -4.3230    1.7590 o         1 MOL     -0.556219
     97 C32         0.9340   -2.4990    3.7080 c3        1 MOL      0.313756
     98 C33         1.6250   -1.1720    3.6980 c3        1 MOL     -0.299282
     99 C34        -0.1670   -2.4200    4.7010 c3        1 MOL     -0.299282
    100 H41        -0.7980   -4.4910    2.8270 hn        1 MOL      0.313737
    101 H42         0.1430   -1.8580    1.8680 h1        1 MOL      0.047526
    102 H43         1.6870   -3.2290    3.9880 hc        1 MOL     -0.034436
    103 H44         1.9380   -0.8980    4.7010 hc        1 MOL      0.057305
    104 H45         2.5200   -1.2080    3.0750 hc        1 MOL      0.057305
    105 H46         1.0010   -0.3900    3.2820 hc        1 MOL      0.057305
    106 H47         0.2620   -2.1890    5.6800 hc        1 MOL      0.057305
    107 H48        -0.8810   -1.6290    4.5050 hc        1 MOL      0.057305
    108 H49        -0.6700   -3.3850    4.7800 hc        1 MOL      0.057305
    109 N10         1.7460   -2.5670    0.3080 n         1 MOL     -0.140674
    110 C35         2.9340   -2.7340   -0.6190 c3        1 MOL      0.049400
    111 C36         4.2230   -2.1740    0.0240 c         1 MOL      0.404360
    112 O17         4.1840   -1.4250    1.0210 o         1 MOL     -0.353545
    113 C37         2.6890   -1.8990   -1.9050 c3        1 MOL     -0.693123
    114 C38         3.6420   -2.1200   -3.0390 c         1 MOL      0.947277
    115 N11         3.4830   -3.0540   -3.9360 n         1 MOL     -0.856232
    116 O18         4.5900   -1.3780   -3.1490 o         1 MOL     -0.609319
    117 H50         1.0570   -1.8250    0.2090 hn        1 MOL      0.117885
    118 H51         3.1210   -3.7630   -0.9330 h1        1 MOL      0.068412
    119 H52         2.6630   -0.8400   -1.6690 hc        1 MOL      0.225955
    120 H53         1.6700   -2.1120   -2.2410 hc        1 MOL      0.225955
    121 H54         2.7810   -3.7340   -3.7030 hn        1 MOL      0.382387
    122 H55         4.1160   -3.1200   -4.7170 hn        1 MOL      0.382387
    123 N12         5.4190   -2.4490   -0.4610 n         1 MOL     -0.483265
    124 C39         6.7150   -1.9420   -0.0250 c3        1 MOL      0.175979
    125 C40         6.8830   -0.4290   -0.2680 c         1 MOL      0.659487
    126 O19         7.5530    0.2460    0.5180 o         1 MOL     -0.520452
    127 C41         7.7690   -2.7760   -0.8080 c3        1 MOL     -0.119381
    128 C42         9.2070   -2.3960   -0.3490 ca        1 MOL     -0.110521
    129 C43         9.5160   -2.6320    1.0060 ca        1 MOL     -0.080650
    130 C44        10.0910   -1.6800   -1.1870 ca        1 MOL     -0.080650
    131 C45        10.7420   -2.2310    1.4730 ca        1 MOL     -0.306450
    132 C46        11.3630   -1.2510   -0.6740 ca        1 MOL     -0.306450
    133 C47        11.6510   -1.4890    0.6760 ca        1 MOL      0.374961
    134 O20        12.7760   -1.0130    1.2960 oh        1 MOL     -0.504354
    135 H56         5.4380   -2.9880   -1.3130 hn        1 MOL      0.242481
    136 H57         6.8070   -2.2350    1.0220 h1        1 MOL      0.060971
    137 H58         7.6000   -2.5600   -1.8560 hc        1 MOL      0.065108
    138 H59         7.6470   -3.8530   -0.8250 hc        1 MOL      0.065108
    139 H60         8.9040   -3.2070    1.6850 ha        1 MOL      0.130804
    140 H61         9.8330   -1.4180   -2.1930 ha        1 MOL      0.130804
    141 H62        10.9770   -2.4170    2.5110 ha        1 MOL      0.150409
    142 H63        12.0730   -0.7280   -1.3040 ha        1 MOL      0.150409
    143 H64        13.3980   -0.6990    0.6320 ho        1 MOL      0.356826
    144 N13         6.0920    0.0980   -1.1840 n         1 MOL     -0.538429
    145 C48         6.1100    1.5140   -1.4630 c3        1 MOL     -0.002507
    146 C49         5.2550    2.3600   -0.5060 c         1 MOL      0.309378
    147 O21         5.5140    3.5220   -0.2330 o         1 MOL     -0.508430
    148 C50         5.8880    1.6340   -2.9990 c3        1 MOL      0.280998
    149 C51         6.1910    3.0260   -3.5140 c3        1 MOL     -0.390551
    150 C52         5.9560    3.0910   -5.0210 c         1 MOL      0.732990
    151 O22         5.1550    2.3020   -5.6450 o         1 MOL     -0.749614
    152 O23         6.6550    3.9430   -5.6830 o         1 MOL     -0.749614
    153 H65         5.4820   -0.4560   -1.7710 hn        1 MOL      0.235149
    154 H66         7.0920    1.9140   -1.2370 h1        1 MOL      0.072679
    155 H67         4.8790    1.3620   -3.2850 hc        1 MOL     -0.015344
    156 H68         6.6010    0.9360   -3.4490 hc        1 MOL     -0.015344
    157 H69         7.2530    3.1290   -3.3160 hc        1 MOL      0.065785
    158 H70         5.6190    3.8300   -3.0490 hc        1 MOL      0.065785
    159 N14         4.3360    1.6980    0.1680 n         1 MOL     -0.015515
    160 C53         3.6160    2.3000    1.2760 c3        1 MOL     -0.022717
    161 C54         4.2820    1.9790    2.6220 c         1 MOL      0.456839
    162 O24         4.1550    2.7840    3.5340 o         1 MOL     -0.555966
    163 C55         2.1460    1.7480    1.2240 c3        1 MOL     -0.086677
    164 C56         1.2710    2.0640   -0.0250 c3        1 MOL      0.093434
    165 C57         0.0140    1.2150   -0.0880 c         1 MOL      0.647076
    166 O25        -1.0890    1.7820   -0.1710 o         1 MOL     -0.699203
    167 O26         0.0310   -0.0320   -0.3100 o         1 MOL     -0.699203
    168 H71         3.9920    0.8090   -0.1730 hn        1 MOL      0.137468
    169 H72         3.5970    3.3740    1.1080 h1        1 MOL      0.084973
    170 H73         1.5100    2.0820    2.0480 hc        1 MOL      0.027096
    171 H74         2.2170    0.6600    1.2840 hc        1 MOL      0.027096
    172 H75         1.8900    1.7800   -0.8730 hc        1 MOL     -0.022663
    173 H76         1.0550    3.1410   -0.0260 hc        1 MOL     -0.022663
    174 N15         5.0450    0.8530    2.6850 n         1 MOL     -0.050325
    175 C58         5.7770    0.2780    3.8770 c3        1 MOL     -0.225969
    176 H77         6.8300    0.5540    3.8240 h1        1 MOL      0.088544
    177 H78         5.3430    0.6740    4.7950 h1        1 MOL      0.088544
    178 H79         5.6870   -0.8090    3.8710 h1        1 MOL      0.088544
    179 H80         5.2410    0.3920    1.8040 hn        1 MOL     -0.018080
    180 Ca1        -2.5260   -0.4150   -0.9000 Ca        1 MOL      1.742714
    181 O27        -2.0080   -1.7200   -3.1290 oh        1 MOL     -0.930394
    182 H81        -1.5580   -1.5990   -3.9700 ho        1 MOL      0.422828
    183 H82        -2.8000   -2.2110   -3.3510 ho        1 MOL      0.422828
@<TRIPOS>BOND
     1    1    2 1   
     2    1    4 1   
     3    1    5 1   
     4    1    6 1   
     5    2    3 2   
     6    2    7 1   
     7    7    8 1   
     8    7   15 1   
     9    8    9 1   
    10    8   11 1   
    11    8   16 1   
    12    9   10 2   
    13    9   19 1   
    14   11   12 1   
    15   11   17 1   
    16   11   18 1   
    17   12   13 1   
    18   12   14 1   
    19   19   20 1   
    20   19   27 1   
    21   20   21 1   
    22   20   23 1   
    23   20   28 1   
    24   21   22 2   
    25   21   38 1   
    26   23   24 1   
    27   23   25 1   
    28   23   29 1   
    29   24   26 1   
    30   24   30 1   
    31   24   31 1   
    32   25   32 1   
    33   25   33 1   
    34   25   34 1   
    35   26   35 1   
    36   26   36 1   
    37   26   37 1   
    38   38   39 1   
    39   38   46 1   
    40   39   40 1   
    41   39   42 1   
    42   39   47 1   
    43   40   41 2   
    44   40   50 1   
    45   42   43 1   
    46   42   48 1   
    47   42   49 1   
    48   43   44 1   
    49   43   45 1   
    50   50   51 1   
    51   50   54 1   
    52   51   52 1   
    53   51   55 1   
    54   51   56 1   
    55   52   53 2   
    56   52   57 1   
    57   57   58 1   
    58   57   65 1   
    59   58   59 1   
    60   58   61 1   
    61   58   66 1   
    62   59   60 2   
    63   59   69 1   
    64   61   62 1   
    65   61   67 1   
    66   61   68 1   
    67   62   63 1   
    68   62   64 1   
    69   69   70 1   
    70   69   73 1   
    71   70   71 1   
    72   70   74 1   
    73   70   75 1   
    74   71   72 2   
    75   71   76 1   
    76   76   77 1   
    77   76   85 1   
    78   77   78 1   
    79   77   80 1   
    80   77   86 1   
    81   78   79 2   
    82   78   93 1   
    83   80   81 1   
    84   80   87 1   
    85   80   88 1   
    86   81   82 1   
    87   81   89 1   
    88   81   90 1   
    89   82   83 1   
    90   82   84 2   
    91   83   91 1   
    92   83   92 1   
    93   93   94 1   
    94   93  100 1   
    95   94   95 1   
    96   94   97 1   
    97   94  101 1   
    98   95   96 2   
    99   95  109 1   
   100   97   98 1   
   101   97   99 1   
   102   97  102 1   
   103   98  103 1   
   104   98  104 1   
   105   98  105 1   
   106   99  106 1   
   107   99  107 1   
   108   99  108 1   
   109  109  110 1   
   110  109  117 1   
   111  110  111 1   
   112  110  113 1   
   113  110  118 1   
   114  111  112 2   
   115  111  123 1   
   116  113  114 1   
   117  113  119 1   
   118  113  120 1   
   119  114  115 1   
   120  114  116 2   
   121  115  121 1   
   122  115  122 1   
   123  123  124 1   
   124  123  135 1   
   125  124  125 1   
   126  124  127 1   
   127  124  136 1   
   128  125  126 2   
   129  125  144 1   
   130  127  128 1   
   131  127  137 1   
   132  127  138 1   
   133  128  129 ar  
   134  128  130 ar  
   135  129  131 ar  
   136  129  139 1   
   137  130  132 ar  
   138  130  140 1   
   139  131  133 ar  
   140  131  141 1   
   141  132  133 ar  
   142  132  142 1   
   143  133  134 1   
   144  134  143 1   
   145  144  145 1   
   146  144  153 1   
   147  145  146 1   
   148  145  148 1   
   149  145  154 1   
   150  146  147 2   
   151  146  159 1   
   152  148  149 1   
   153  148  155 1   
   154  148  156 1   
   155  149  150 1   
   156  149  157 1   
   157  149  158 1   
   158  150  151 1   
   159  150  152 1   
   160  159  160 1   
   161  159  168 1   
   162  160  161 1   
   163  160  163 1   
   164  160  169 1   
   165  161  162 2   
   166  161  174 1   
   167  163  164 1   
   168  163  170 1   
   169  163  171 1   
   170  164  165 1   
   171  164  172 1   
   172  164  173 1   
   173  165  166 1   
   174  165  167 1   
   175  174  175 1   
   176  174  179 1   
   177  175  176 1   
   178  175  177 1   
   179  175  178 1   
   180  181  182 1   
   181  181  183 1   
@<TRIPOS>SUBSTRUCTURE
     1 MOL         1 TEMP              0 ****  ****    0 ROOT
