@<TRIPOS>MOLECULE
MOL
  183   181     1     0     0
SMALL
resp


@<TRIPOS>ATOM
      1 C1          0.6090   -2.7690    6.1330 c3        1 MOL     -0.342415
      2 C2          0.9630   -2.7890    4.6010 c         1 MOL      0.731398
      3 O1          0.1040   -3.2570    3.8940 o         1 MOL     -0.548773
      4 H1          1.5270   -2.8220    6.7180 hc        1 MOL      0.067080
      5 H2          0.0790   -1.8470    6.3720 hc        1 MOL      0.067080
      6 H3         -0.0230   -3.6240    6.3710 hc        1 MOL      0.067080
      7 N1          2.1720   -2.4640    4.2630 n         1 MOL     -0.622377
      8 C3          2.6820   -2.3860    2.8480 c3        1 MOL      0.230730
      9 C4          3.1080   -3.8030    2.2810 c         1 MOL      0.543651
     10 O2          3.9750   -4.5100    2.8280 o         1 MOL     -0.593191
     11 C5          3.9090   -1.4450    2.8460 c3        1 MOL     -0.243248
     12 C6          4.4770   -1.0630    1.4580 c         1 MOL      0.823164
     13 O3          5.5540   -0.4070    1.4040 o         1 MOL     -0.681821
     14 O4          3.7830   -1.3930    0.4590 o         1 MOL     -0.681821
     15 H4          2.7400   -2.0230    4.9740 hn        1 MOL      0.318851
     16 H5          1.8600   -2.0010    2.2480 h1        1 MOL      0.027745
     17 H6          4.7220   -1.9350    3.3700 hc        1 MOL      0.028621
     18 H7          3.6700   -0.5120    3.3670 hc        1 MOL      0.028621
     19 N2          2.4870   -4.2270    1.1870 n         1 MOL     -0.347923
     20 C7          2.7600   -5.3830    0.4350 c3        1 MOL      0.015498
     21 C8          3.6960   -5.1820   -0.8220 c         1 MOL      0.458489
     22 O5          4.3520   -6.1400   -1.1860 o         1 MOL     -0.581277
     23 C9          1.3750   -5.9120    0.0120 c3        1 MOL      0.065854
     24 C10         0.4090   -6.1310    1.1440 c3        1 MOL      0.290172
     25 C11         1.6470   -7.2660   -0.7010 c3        1 MOL     -0.155966
     26 C12        -1.0320   -6.3870    0.7140 c3        1 MOL     -0.304567
     27 H8          1.7800   -3.6090    0.8100 hn        1 MOL      0.201358
     28 H9          3.1480   -6.1620    1.0800 h1        1 MOL      0.054211
     29 H10         0.9170   -5.2120   -0.6860 hc        1 MOL      0.020402
     30 H11         0.4290   -5.3220    1.8750 hc        1 MOL     -0.065944
     31 H12         0.7280   -6.9760    1.7560 hc        1 MOL     -0.065944
     32 H13         2.0360   -7.1160   -1.7100 hc        1 MOL      0.024936
     33 H14         2.2460   -7.9350   -0.0930 hc        1 MOL      0.024936
     34 H15         0.7940   -7.9240   -0.8800 hc        1 MOL      0.024936
     35 H16        -1.0760   -7.3700    0.2630 hc        1 MOL      0.056356
     36 H17        -1.5850   -6.3790    1.6620 hc        1 MOL      0.056356
     37 H18        -1.2410   -5.5280    0.0890 hc        1 MOL      0.056356
     38 N3          3.6840   -3.9780   -1.4330 n         1 MOL     -0.181136
     39 C13         4.3370   -3.6690   -2.7620 c3        1 MOL     -0.061553
     40 C14         5.6870   -2.9120   -2.5700 c         1 MOL      0.417365
     41 O6          6.4770   -2.7890   -3.4350 o         1 MOL     -0.505121
     42 C15         3.4500   -2.9480   -3.7220 c3        1 MOL     -0.169618
     43 C16         2.8200   -1.6090   -3.2080 c         1 MOL      0.640913
     44 O7          3.5850   -0.5920   -3.0630 o         1 MOL     -0.704414
     45 O8          1.7930   -1.5800   -2.4990 o         1 MOL     -0.704414
     46 H19         3.0750   -3.3240   -0.9590 hn        1 MOL      0.221817
     47 H20         4.6370   -4.6140   -3.2140 h1        1 MOL      0.105838
     48 H21         2.6950   -3.6240   -4.1320 hc        1 MOL      0.054739
     49 H22         4.1290   -2.5860   -4.4950 hc        1 MOL      0.054739
     50 N4          6.0120   -2.5440   -1.3410 n         1 MOL     -0.097519
     51 C17         7.2790   -1.9720   -0.9080 c3        1 MOL     -0.316402
     52 C18         7.6460   -0.6500   -1.5780 c         1 MOL      0.702160
     53 O9          8.6390   -0.5740   -2.2730 o         1 MOL     -0.612561
     54 H23         5.3710   -2.8020   -0.6140 hn        1 MOL      0.156110
     55 H24         8.0910   -2.6590   -1.1060 h1        1 MOL      0.108438
     56 H25         7.3410   -1.8390    0.1790 h1        1 MOL      0.108438
     57 N5          6.9580    0.4180   -1.1440 n         1 MOL     -0.280797
     58 C19         7.1480    1.7830   -1.4740 c3        1 MOL      0.098575
     59 C20         6.9910    2.6720   -0.2140 c         1 MOL      0.369321
     60 O10         7.2580    3.8970   -0.2730 o         1 MOL     -0.546455
     61 C21         6.2280    2.3660   -2.6040 c3        1 MOL      0.073784
     62 C22         4.7060    2.3860   -2.2870 c         1 MOL      0.668984
     63 O11         4.2770    2.0050   -1.1410 o         1 MOL     -0.686898
     64 O12         3.9150    2.8640   -3.1590 o         1 MOL     -0.686898
     65 H26         6.3250    0.2750   -0.3630 hn        1 MOL     -0.069827
     66 H27         8.1430    1.9460   -1.8850 h1        1 MOL      0.036958
     67 H28         6.3770    1.6910   -3.4490 hc        1 MOL     -0.016831
     68 H29         6.6440    3.3060   -2.9810 hc        1 MOL     -0.016831
     69 N6          6.6680    2.1510    0.9800 n         1 MOL     -0.238000
     70 C23         6.5710    2.9660    2.1370 c3        1 MOL     -0.063415
     71 C24         5.3250    3.8170    2.1670 c         1 MOL      0.561772
     72 O13         5.3060    4.7700    2.8940 o         1 MOL     -0.625158
     73 H30         6.5770    1.1520    1.0950 hn        1 MOL      0.284746
     74 H31         7.3860    3.6880    2.1840 h1        1 MOL      0.051750
     75 H32         6.6140    2.3920    3.0670 h1        1 MOL      0.051750
     76 N7          4.2770    3.4630    1.4960 n         1 MOL     -0.322532
     77 C25         2.9430    4.1330    1.4750 c3        1 MOL      0.165534
     78 C26         1.9090    3.0740    1.5340 c         1 MOL      0.532504
     79 O14         2.1310    1.9370    1.1030 o         1 MOL     -0.625342
     80 C27         2.8210    5.0710    0.3120 c3        1 MOL     -0.254315
     81 C28         3.7050    6.2630    0.3630 c3        1 MOL     -0.080151
     82 C29         3.6070    7.1040   -0.9000 c         1 MOL      0.665367
     83 N8          4.3550    8.1310   -0.9760 n         1 MOL     -0.761270
     84 O15         2.8010    6.8970   -1.7400 o         1 MOL     -0.559656
     85 H33         4.3560    2.6920    0.8560 hn        1 MOL      0.205682
     86 H34         2.8560    4.6240    2.4540 h1        1 MOL      0.001385
     87 H35         1.7760    5.3630    0.2020 hc        1 MOL      0.091553
     88 H36         3.1300    4.5440   -0.5900 hc        1 MOL      0.091553
     89 H37         4.7080    5.8840    0.5330 hc        1 MOL      0.043238
     90 H38         3.5970    6.9430    1.2050 hc        1 MOL      0.043238
     91 H39         4.9730    8.3730   -0.2140 hn        1 MOL      0.331628
     92 H40         4.0200    8.8280   -1.6370 hn        1 MOL      0.331628
     93 N9          0.7910    3.4560    2.1530 n         1 MOL     -0.364133
     94 C30        -0.4140    2.6520    2.4620 c3        1 MOL     -0.027145
     95 C31        -1.5320    3.0670    1.5920 c         1 MOL      0.382677
     96 O16        -2.1200    4.1460    1.8350 o         1 MOL     -0.570233
     97 C32        -0.6640    2.7020    3.9650 c3        1 MOL      0.267323
     98 C33        -2.0190    2.1800    4.3640 c3        1 MOL     -0.363249
     99 C34         0.3180    1.6940    4.5680 c3        1 MOL     -0.363249
    100 H41         0.7870    4.3990    2.5110 hn        1 MOL      0.253827
    101 H42        -0.1440    1.6380    2.1810 h1        1 MOL      0.139635
    102 H43        -0.5060    3.6940    4.3940 hc        1 MOL     -0.011196
    103 H44        -2.0580    2.2510    5.4470 hc        1 MOL      0.084465
    104 H45        -2.7680    2.8800    3.9670 hc        1 MOL      0.084465
    105 H46        -2.1820    1.1380    4.1090 hc        1 MOL      0.084465
    106 H47         0.0580    1.5630    5.6170 hc        1 MOL      0.084465
    107 H48         0.2230    0.6920    4.1500 hc        1 MOL      0.084465
    108 H49         1.3280    2.0900    4.4620 hc        1 MOL      0.084465
    109 N10        -1.8650    2.3470    0.5510 n         1 MOL     -0.189695
    110 C35        -3.0130    2.4810   -0.3990 c3        1 MOL      0.016499
    111 C36        -4.2520    1.9490    0.2080 c         1 MOL      0.416840
    112 O17        -4.2430    1.0910    1.1150 o         1 MOL     -0.344782
    113 C37        -2.5770    1.8100   -1.7510 c3        1 MOL     -0.059228
    114 C38        -3.5060    2.0370   -2.9200 c         1 MOL      0.512980
    115 N11        -3.1520    1.6770   -4.1240 n         1 MOL     -0.687089
    116 O18        -4.5590    2.6660   -2.8460 o         1 MOL     -0.556310
    117 H50        -1.2530    1.5660    0.3870 hn        1 MOL      0.183246
    118 H51        -3.1230    3.5310   -0.6420 h1        1 MOL      0.082903
    119 H52        -2.4400    0.7350   -1.6280 hc        1 MOL      0.045911
    120 H53        -1.5640    2.1860   -1.8830 hc        1 MOL      0.045911
    121 H54        -2.1830    1.4440   -4.3140 hn        1 MOL      0.356213
    122 H55        -3.7820    1.7990   -4.9100 hn        1 MOL      0.356213
    123 N12        -5.4600    2.4510   -0.2460 n         1 MOL     -0.525257
    124 C39        -6.7590    1.8500    0.0790 c3        1 MOL      0.249674
    125 C40        -6.8220    0.3290   -0.1170 c         1 MOL      0.660810
    126 O19        -7.3530   -0.3370    0.7820 o         1 MOL     -0.580269
    127 C41        -7.8290    2.5320   -0.8030 c3        1 MOL     -0.038315
    128 C42        -9.2300    2.0270   -0.6520 ca        1 MOL     -0.055330
    129 C43        -9.8960    2.1830    0.5520 ca        1 MOL     -0.164100
    130 C44        -9.9000    1.2210   -1.6380 ca        1 MOL     -0.164100
    131 C45       -11.1620    1.6560    0.7610 ca        1 MOL     -0.174398
    132 C46       -11.1920    0.7990   -1.4650 ca        1 MOL     -0.174398
    133 C47       -11.8640    1.0150   -0.2370 ca        1 MOL      0.255959
    134 O20       -13.1320    0.5800    0.0780 oh        1 MOL     -0.494163
    135 H56        -5.3950    3.1900   -0.9260 hn        1 MOL      0.263909
    136 H57        -6.9140    2.0480    1.1440 h1        1 MOL      0.000272
    137 H58        -7.5610    2.4900   -1.8520 hc        1 MOL      0.032505
    138 H59        -7.7860    3.5930   -0.5370 hc        1 MOL      0.032505
    139 H60        -9.3900    2.6390    1.3930 ha        1 MOL      0.127407
    140 H61        -9.4080    1.0430   -2.5810 ha        1 MOL      0.127407
    141 H62       -11.6070    1.6880    1.7430 ha        1 MOL      0.116245
    142 H63       -11.6920    0.3510   -2.3070 ha        1 MOL      0.116245
    143 H64       -13.6440    0.4280   -0.7260 ho        1 MOL      0.354907
    144 N13        -6.3150   -0.1900   -1.2370 n         1 MOL     -0.360991
    145 C48        -6.2300   -1.6240   -1.4420 c3        1 MOL     -0.016124
    146 C49        -5.2820   -2.4160   -0.4730 c         1 MOL      0.393538
    147 O21        -5.4760   -3.5920   -0.2800 o         1 MOL     -0.526980
    148 C50        -5.9790   -1.8110   -2.9190 c3        1 MOL     -0.182109
    149 C51        -4.5560   -1.3960   -3.3330 c3        1 MOL     -0.218560
    150 C52        -4.2280   -1.5530   -4.8020 c         1 MOL      0.768970
    151 O22        -4.9750   -1.0190   -5.6680 o         1 MOL     -0.753185
    152 O23        -3.2290   -2.1740   -5.1370 o         1 MOL     -0.753185
    153 H65        -6.0920    0.4280   -2.0010 hn        1 MOL      0.271924
    154 H66        -7.2300   -2.0060   -1.2670 h1        1 MOL      0.062587
    155 H67        -6.7730   -1.4130   -3.5490 hc        1 MOL      0.070998
    156 H68        -6.0160   -2.8940   -3.0340 hc        1 MOL      0.070998
    157 H69        -3.7380   -1.9490   -2.8750 hc        1 MOL      0.063842
    158 H70        -4.4450   -0.3300   -3.1070 hc        1 MOL      0.063842
    159 N14        -4.3150   -1.7990    0.1650 n         1 MOL     -0.076579
    160 C53        -3.5420   -2.2960    1.2680 c3        1 MOL     -0.092321
    161 C54        -4.2690   -2.1350    2.6240 c         1 MOL      0.484041
    162 O24        -4.2310   -3.0970    3.3960 o         1 MOL     -0.555882
    163 C55        -2.2590   -1.5700    1.3170 c3        1 MOL      0.162595
    164 C56        -1.3530   -2.0380    0.1420 c3        1 MOL     -0.127919
    165 C57        -0.0100   -1.3290    0.1320 c         1 MOL      0.776876
    166 O25         1.0400   -1.9370    0.0990 o         1 MOL     -0.755699
    167 O26         0.0340   -0.0660    0.0960 o         1 MOL     -0.755699
    168 H71        -4.0890   -0.8710   -0.1710 hn        1 MOL      0.056151
    169 H72        -3.3200   -3.3580    1.1150 h1        1 MOL      0.096196
    170 H73        -1.7700   -1.7890    2.2690 hc        1 MOL     -0.028139
    171 H74        -2.2870   -0.4810    1.2790 hc        1 MOL     -0.028139
    172 H75        -1.7950   -1.8730   -0.8360 hc        1 MOL      0.043517
    173 H76        -1.0280   -3.0680    0.2570 hc        1 MOL      0.043517
    174 N15        -4.8160   -0.9450    2.9900 n         1 MOL     -0.092541
    175 C58        -5.5150   -0.7270    4.2680 c3        1 MOL     -0.303480
    176 H77        -4.7980   -0.7840    5.0880 h1        1 MOL      0.104362
    177 H78        -5.9840    0.2570    4.2640 h1        1 MOL      0.104362
    178 H79        -6.2790   -1.4930    4.4010 h1        1 MOL      0.104362
    179 H80        -4.7930   -0.2270    2.2780 hn        1 MOL      0.065740
    180 Ca1         2.3560    0.2930   -0.8310 Ca        1 MOL      1.710821
    181 O27         1.1370    1.9710   -2.3040 oh        1 MOL     -0.855416
    182 H81         1.5060    2.8310   -2.5000 ho        1 MOL      0.416264
    183 H82         0.6780    1.7130   -3.1090 ho        1 MOL      0.416264
@<TRIPOS>BOND
     1    1    2 1   
     2    1    4 1   
     3    1    5 1   
     4    1    6 1   
     5    2    3 2   
     6    2    7 1   
     7    7    8 1   
     8    7   15 1   
     9    8    9 1   
    10    8   11 1   
    11    8   16 1   
    12    9   10 2   
    13    9   19 1   
    14   11   12 1   
    15   11   17 1   
    16   11   18 1   
    17   12   13 1   
    18   12   14 1   
    19   19   20 1   
    20   19   27 1   
    21   20   21 1   
    22   20   23 1   
    23   20   28 1   
    24   21   22 2   
    25   21   38 1   
    26   23   24 1   
    27   23   25 1   
    28   23   29 1   
    29   24   26 1   
    30   24   30 1   
    31   24   31 1   
    32   25   32 1   
    33   25   33 1   
    34   25   34 1   
    35   26   35 1   
    36   26   36 1   
    37   26   37 1   
    38   38   39 1   
    39   38   46 1   
    40   39   40 1   
    41   39   42 1   
    42   39   47 1   
    43   40   41 2   
    44   40   50 1   
    45   42   43 1   
    46   42   48 1   
    47   42   49 1   
    48   43   44 1   
    49   43   45 1   
    50   50   51 1   
    51   50   54 1   
    52   51   52 1   
    53   51   55 1   
    54   51   56 1   
    55   52   53 2   
    56   52   57 1   
    57   57   58 1   
    58   57   65 1   
    59   58   59 1   
    60   58   61 1   
    61   58   66 1   
    62   59   60 2   
    63   59   69 1   
    64   61   62 1   
    65   61   67 1   
    66   61   68 1   
    67   62   63 1   
    68   62   64 1   
    69   69   70 1   
    70   69   73 1   
    71   70   71 1   
    72   70   74 1   
    73   70   75 1   
    74   71   72 2   
    75   71   76 1   
    76   76   77 1   
    77   76   85 1   
    78   77   78 1   
    79   77   80 1   
    80   77   86 1   
    81   78   79 2   
    82   78   93 1   
    83   80   81 1   
    84   80   87 1   
    85   80   88 1   
    86   81   82 1   
    87   81   89 1   
    88   81   90 1   
    89   82   83 1   
    90   82   84 2   
    91   83   91 1   
    92   83   92 1   
    93   93   94 1   
    94   93  100 1   
    95   94   95 1   
    96   94   97 1   
    97   94  101 1   
    98   95   96 2   
    99   95  109 1   
   100   97   98 1   
   101   97   99 1   
   102   97  102 1   
   103   98  103 1   
   104   98  104 1   
   105   98  105 1   
   106   99  106 1   
   107   99  107 1   
   108   99  108 1   
   109  109  110 1   
   110  109  117 1   
   111  110  111 1   
   112  110  113 1   
   113  110  118 1   
   114  111  112 2   
   115  111  123 1   
   116  113  114 1   
   117  113  119 1   
   118  113  120 1   
   119  114  115 1   
   120  114  116 2   
   121  115  121 1   
   122  115  122 1   
   123  123  124 1   
   124  123  135 1   
   125  124  125 1   
   126  124  127 1   
   127  124  136 1   
   128  125  126 2   
   129  125  144 1   
   130  127  128 1   
   131  127  137 1   
   132  127  138 1   
   133  128  129 ar  
   134  128  130 ar  
   135  129  131 ar  
   136  129  139 1   
   137  130  132 ar  
   138  130  140 1   
   139  131  133 ar  
   140  131  141 1   
   141  132  133 ar  
   142  132  142 1   
   143  133  134 1   
   144  134  143 1   
   145  144  145 1   
   146  144  153 1   
   147  145  146 1   
   148  145  148 1   
   149  145  154 1   
   150  146  147 2   
   151  146  159 1   
   152  148  149 1   
   153  148  155 1   
   154  148  156 1   
   155  149  150 1   
   156  149  157 1   
   157  149  158 1   
   158  150  151 1   
   159  150  152 1   
   160  159  160 1   
   161  159  168 1   
   162  160  161 1   
   163  160  163 1   
   164  160  169 1   
   165  161  162 2   
   166  161  174 1   
   167  163  164 1   
   168  163  170 1   
   169  163  171 1   
   170  164  165 1   
   171  164  172 1   
   172  164  173 1   
   173  165  166 1   
   174  165  167 1   
   175  174  175 1   
   176  174  179 1   
   177  175  176 1   
   178  175  177 1   
   179  175  178 1   
   180  181  182 1   
   181  181  183 1   
@<TRIPOS>SUBSTRUCTURE
     1 MOL         1 TEMP              0 ****  ****    0 ROOT
