@<TRIPOS>MOLECULE
MOL
  176   174     1     0     0
SMALL
resp


@<TRIPOS>ATOM
      1 C1          1.7950    2.3540    6.2810 c3        1 MOL     -0.205629
      2 C2          1.3650    1.9190    4.8870 c         1 MOL      0.833370
      3 O1          2.1510    1.4620    4.0850 o         1 MOL     -0.619544
      4 H1          1.5920    3.4170    6.4090 hc        1 MOL      0.046638
      5 H2          1.2390    1.7860    7.0280 hc        1 MOL      0.046638
      6 H3          2.8630    2.1710    6.4060 hc        1 MOL      0.046638
      7 N1          0.0990    2.2620    4.5330 n         1 MOL     -0.692177
      8 C3         -0.3160    2.1770    3.0880 c3        1 MOL      0.108368
      9 C4         -0.2580    3.5580    2.4350 c         1 MOL      0.548819
     10 O2         -0.6250    4.5660    3.0690 o         1 MOL     -0.549941
     11 C5         -1.7530    1.6290    2.9650 c3        1 MOL     -0.255322
     12 C6         -2.1620    1.3650    1.5400 c         1 MOL      0.988686
     13 O3         -2.3730    0.2430    1.1300 o         1 MOL     -0.896210
     14 O4         -2.1310    2.2600    0.6850 o         1 MOL     -0.896210
     15 H4         -0.5380    2.7970    5.1080 hn        1 MOL      0.348079
     16 H5          0.3620    1.5180    2.5380 h1        1 MOL      0.041046
     17 H6         -2.3680    2.4380    3.3640 hc        1 MOL      0.066706
     18 H7         -1.9800    0.8250    3.6640 hc        1 MOL      0.066706
     19 N2          0.2460    3.5790    1.1860 n         1 MOL     -0.213957
     20 C7          0.6700    4.8140    0.5110 c3        1 MOL     -0.275015
     21 C8         -0.4530    5.5270   -0.3030 c         1 MOL      0.620420
     22 O5         -0.3040    6.7570   -0.4850 o         1 MOL     -0.590023
     23 C9          1.8820    4.3750   -0.3400 c3        1 MOL      0.066758
     24 C10         2.5580    5.4760   -1.0840 c3        1 MOL     -0.089115
     25 C11         3.8020    5.0740   -1.8450 c3        1 MOL      0.039235
     26 C12         4.3500    6.2890   -2.5440 c3        1 MOL     -0.007087
     27 N3          5.7760    6.1350   -2.9560 n4        1 MOL     -0.341483
     28 H8          0.5660    2.7070    0.7780 hn        1 MOL      0.169566
     29 H9          1.0970    5.4870    1.2600 h1        1 MOL      0.130220
     30 H10         1.4900    3.6750   -1.0900 hc        1 MOL      0.069405
     31 H11         2.6150    3.9250    0.3270 hc        1 MOL      0.069405
     32 H12         2.8160    6.2060   -0.3060 hc        1 MOL      0.046527
     33 H13         1.8810    6.0260   -1.7420 hc        1 MOL      0.046527
     34 H14         3.5250    4.3890   -2.6550 hc        1 MOL      0.039189
     35 H15         4.4920    4.6690   -1.1060 hc        1 MOL      0.039189
     36 H16         4.1860    7.0980   -1.8170 hx        1 MOL      0.083172
     37 H17         3.7010    6.4190   -3.3990 hx        1 MOL      0.083172
     38 H18         5.8970    5.3710   -3.6120 hn        1 MOL      0.324745
     39 H19         6.1010    6.9320   -3.4860 hn        1 MOL      0.324745
     40 H20         6.4870    6.1160   -2.2330 hn        1 MOL      0.324745
     41 N4         -1.3860    4.7450   -0.8430 n         1 MOL     -0.434562
     42 C13        -2.3300    5.2250   -1.8070 c3        1 MOL      0.251375
     43 C14        -3.7880    5.1960   -1.2090 c         1 MOL      0.403696
     44 O6         -4.5970    5.9660   -1.6260 o         1 MOL     -0.541345
     45 C15        -2.1800    4.4220   -3.0850 c3        1 MOL     -0.327775
     46 C16        -2.0470    2.9730   -2.7210 c         1 MOL      0.825773
     47 O7         -3.0230    2.2840   -2.5280 o         1 MOL     -0.791440
     48 O8         -0.9200    2.4290   -2.5430 o         1 MOL     -0.791440
     49 H21        -1.5010    3.8030   -0.5050 hn        1 MOL      0.208826
     50 H22        -2.2120    6.2600   -2.1300 h1        1 MOL      0.044633
     51 H23        -1.3190    4.7300   -3.6830 hc        1 MOL      0.080267
     52 H24        -3.1180    4.5730   -3.6270 hc        1 MOL      0.080267
     53 N5         -4.0210    4.3150   -0.2430 n         1 MOL     -0.223411
     54 C17        -5.1970    4.3550    0.7110 c3        1 MOL     -0.063644
     55 C18        -5.9770    3.0690    0.7570 c         1 MOL      0.571958
     56 O9         -6.6610    2.8420    1.7500 o         1 MOL     -0.569839
     57 H25        -3.2800    3.6210   -0.1930 hn        1 MOL      0.242635
     58 H26        -5.9340    5.1130    0.4530 h1        1 MOL      0.082864
     59 H27        -4.8350    4.4890    1.7300 h1        1 MOL      0.082864
     60 N6         -5.8370    2.2390   -0.2610 n         1 MOL     -0.386264
     61 C19        -6.6730    1.0200   -0.4260 c3        1 MOL      0.024210
     62 C20        -6.4280   -0.1660    0.5250 c         1 MOL      0.365647
     63 O10        -7.2700   -1.0070    0.7700 o         1 MOL     -0.529224
     64 C21        -6.6680    0.5500   -1.8300 c3        1 MOL     -0.260495
     65 C22        -5.4410   -0.2620   -2.2210 c         1 MOL      0.646951
     66 N7         -5.5500   -1.0530   -3.2790 n         1 MOL     -0.743626
     67 O11        -4.3270   -0.3180   -1.5700 o         1 MOL     -0.481410
     68 H28        -5.2280    2.4330   -1.0500 hn        1 MOL      0.249090
     69 H29        -7.7090    1.3130   -0.2740 h1        1 MOL      0.123150
     70 H30        -6.8980    1.4270   -2.4470 hc        1 MOL      0.105990
     71 H31        -7.5260   -0.0880   -2.0360 hc        1 MOL      0.105990
     72 H32        -6.2780   -0.9080   -3.9600 hn        1 MOL      0.362542
     73 H33        -4.7670   -1.6060   -3.5730 hn        1 MOL      0.362542
     74 N8         -5.4100   -0.1020    1.3270 n         1 MOL     -0.024179
     75 C23        -4.9550   -1.0740    2.4160 c3        1 MOL     -0.367872
     76 C24        -4.2620   -2.3820    1.9340 c         1 MOL      0.569843
     77 O12        -4.1140   -3.4140    2.5990 o         1 MOL     -0.600713
     78 H34        -4.7990    0.6830    1.1530 hn        1 MOL      0.157739
     79 H35        -5.8160   -1.3520    3.0190 h1        1 MOL      0.168312
     80 H36        -4.1630   -0.5320    2.9470 h1        1 MOL      0.168312
     81 N9         -3.8510   -2.4610    0.6940 n         1 MOL      0.068992
     82 C25        -3.0540   -3.5260    0.1260 c3        1 MOL      0.029296
     83 C26        -1.5910   -3.0620    0.2060 c         1 MOL      0.461492
     84 O13        -1.2020   -2.0940   -0.5380 o         1 MOL     -0.585962
     85 C27        -3.5630   -3.9390   -1.2660 c3        1 MOL     -0.115896
     86 C28        -4.8580   -4.6660   -1.2570 ca        1 MOL      0.060807
     87 C29        -6.0370   -3.9090   -1.0850 ca        1 MOL     -0.201701
     88 C30        -4.9090   -6.0900   -1.3160 ca        1 MOL     -0.201701
     89 C31        -7.2800   -4.5770   -1.1240 ca        1 MOL     -0.206038
     90 C32        -6.1750   -6.7300   -1.2010 ca        1 MOL     -0.206038
     91 C33        -7.3650   -5.9400   -1.1540 ca        1 MOL      0.320008
     92 O14        -8.6000   -6.5480   -1.1300 oh        1 MOL     -0.533365
     93 H37        -4.1020   -1.7220    0.0460 hn        1 MOL     -0.106078
     94 H38        -3.1830   -4.4740    0.6540 h1        1 MOL      0.081881
     95 H39        -2.8130   -4.6220   -1.6780 hc        1 MOL      0.041504
     96 H40        -3.7010   -3.0900   -1.9470 hc        1 MOL      0.041504
     97 H41        -6.0460   -2.8370   -0.9520 ha        1 MOL      0.150689
     98 H42        -3.9670   -6.6170   -1.3200 ha        1 MOL      0.150689
     99 H43        -8.2030   -4.0410   -0.9950 ha        1 MOL      0.135743
    100 H44        -6.2300   -7.8000   -1.3470 ha        1 MOL      0.135743
    101 H45        -9.3240   -5.9660   -0.8940 ho        1 MOL      0.388963
    102 N10        -0.7270   -3.5540    1.1440 n         1 MOL     -0.392250
    103 C34         0.6510   -3.0290    1.3690 c3        1 MOL      0.088741
    104 C35         1.6310   -4.0410    0.7440 c         1 MOL      0.493600
    105 O15         1.3690   -5.2110    0.7790 o         1 MOL     -0.548388
    106 C36         0.9890   -2.7210    2.8800 c3        1 MOL     -0.006342
    107 C37        -0.0830   -1.7550    3.5390 c3        1 MOL      0.182769
    108 C38         2.3270   -2.0370    3.0390 c3        1 MOL     -0.133782
    109 C39        -0.1230   -1.9120    5.0660 c3        1 MOL     -0.285630
    110 H46        -1.2050   -4.2070    1.7380 hn        1 MOL      0.256176
    111 H47         0.7280   -2.1020    0.8040 h1        1 MOL      0.048397
    112 H48         1.2010   -3.6520    3.4140 hc        1 MOL      0.023922
    113 H49        -1.0930   -2.0020    3.1990 hc        1 MOL      0.002290
    114 H50         0.0990   -0.7070    3.3400 hc        1 MOL      0.002290
    115 H51         2.2320   -1.2080    2.3280 hc        1 MOL      0.016011
    116 H52         2.5060   -1.6220    4.0300 hc        1 MOL      0.016011
    117 H53         3.1870   -2.6400    2.7610 hc        1 MOL      0.016011
    118 H54         0.8380   -1.6960    5.5270 hc        1 MOL      0.059881
    119 H55        -0.7930   -1.2010    5.5460 hc        1 MOL      0.059881
    120 H56        -0.4890   -2.9140    5.3040 hc        1 MOL      0.059881
    121 N11         2.5640   -3.4600    0.0020 n         1 MOL     -0.051646
    122 C40         3.6410   -4.1440   -0.7580 c3        1 MOL     -0.035544
    123 C41         4.9970   -3.6830   -0.3840 c         1 MOL      0.312996
    124 O16         5.2440   -2.7560    0.4300 o         1 MOL     -0.330589
    125 C42         3.4190   -4.0270   -2.2930 c3        1 MOL     -0.122822
    126 O17         3.4180   -2.6590   -2.5380 oh        1 MOL     -0.460421
    127 H57         2.6680   -2.4570   -0.0240 hn        1 MOL      0.104377
    128 H58         3.5140   -5.1850   -0.4750 h1        1 MOL      0.076402
    129 H59         2.4750   -4.4900   -2.5680 h1        1 MOL      0.100664
    130 H60         4.1700   -4.4960   -2.9270 h1        1 MOL      0.100664
    131 H61         3.6610   -2.5010   -3.4530 ho        1 MOL      0.392285
    132 N12         6.0600   -4.3910   -0.7800 n         1 MOL     -0.310004
    133 C43         7.4290   -4.1190   -0.3090 c3        1 MOL      0.018196
    134 C44         7.9400   -2.7010   -0.8230 c         1 MOL      0.532344
    135 O18         8.7360   -2.0100   -0.1640 o         1 MOL     -0.510223
    136 C45         8.4390   -5.1920   -0.8130 c3        1 MOL     -0.383655
    137 H62         5.8610   -5.1900   -1.3590 hn        1 MOL      0.274359
    138 H63         7.4300   -4.1360    0.7850 h1        1 MOL      0.122812
    139 H64         8.5390   -5.0720   -1.8990 hc        1 MOL      0.121985
    140 H65         9.3560   -4.9410   -0.2800 hc        1 MOL      0.121985
    141 H66         8.1380   -6.2390   -0.7360 hc        1 MOL      0.121985
    142 N13         7.4320   -2.2050   -1.9440 n         1 MOL     -0.492417
    143 C46         7.6100   -0.7960   -2.2540 c3        1 MOL      0.282431
    144 C47         6.8930    0.1980   -1.3600 c         1 MOL      0.160784
    145 O19         7.3190    1.3520   -1.1220 o         1 MOL     -0.521075
    146 C48         7.2940   -0.5510   -3.7430 c3        1 MOL     -0.278283
    147 H67         6.6960   -2.6410   -2.4890 hn        1 MOL      0.258354
    148 H68         8.6770   -0.6000   -2.2640 h1        1 MOL      0.074202
    149 H69         7.8530   -1.2790   -4.3330 hc        1 MOL      0.072886
    150 H70         6.2230   -0.6460   -3.8860 hc        1 MOL      0.072886
    151 H71         7.6660    0.4310   -4.0590 hc        1 MOL      0.072886
    152 N14         5.7560   -0.1420   -0.7760 n         1 MOL      0.041781
    153 C49         5.1120    0.7300    0.2060 c3        1 MOL      0.034099
    154 C50         5.7530    0.5940    1.6350 c         1 MOL      0.467717
    155 O20         6.0760    1.5870    2.2730 o         1 MOL     -0.547703
    156 C51         3.6440    0.2840    0.1830 c3        1 MOL     -0.018315
    157 C52         2.9730    0.7210   -1.1730 c3        1 MOL     -0.061855
    158 C53         1.5510    0.2300   -1.1100 c         1 MOL      0.807208
    159 O21         0.7620    0.5530   -0.1680 o         1 MOL     -0.739604
    160 O22         1.0680   -0.3700   -2.0940 o         1 MOL     -0.739604
    161 H72         5.4140   -1.0890   -0.9020 hn        1 MOL      0.096612
    162 H73         5.1000    1.7700   -0.1310 h1        1 MOL      0.021362
    163 H74         3.1720    0.8650    0.9720 hc        1 MOL      0.027799
    164 H75         3.5720   -0.7780    0.4190 hc        1 MOL      0.027799
    165 H76         3.3950    0.2160   -2.0320 hc        1 MOL     -0.067728
    166 H77         2.9370    1.8120   -1.1790 hc        1 MOL     -0.067728
    167 N15         6.2780   -0.5780    1.9290 n         1 MOL     -0.069689
    168 C54         7.0050   -0.8350    3.1440 c3        1 MOL     -0.402586
    169 H78         7.6880   -1.6700    2.9880 h1        1 MOL      0.139500
    170 H79         7.5740    0.0520    3.4220 h1        1 MOL      0.139500
    171 H80         6.3040   -1.0820    3.9420 h1        1 MOL      0.139500
    172 H81         6.1140   -1.4000    1.3710 hn        1 MOL      0.112678
    173 Ca1        -1.5290    0.4080   -1.2170 Ca        1 MOL      1.791208
    174 O23        -1.5040   -1.1560   -3.5400 oh        1 MOL     -0.890309
    175 H82        -0.6020   -1.3830   -3.7740 ho        1 MOL      0.427158
    176 H83        -2.0380   -1.7840   -4.0150 ho        1 MOL      0.427158
@<TRIPOS>BOND
     1    1    2 1   
     2    1    4 1   
     3    1    5 1   
     4    1    6 1   
     5    2    3 2   
     6    2    7 1   
     7    7    8 1   
     8    7   15 1   
     9    8    9 1   
    10    8   11 1   
    11    8   16 1   
    12    9   10 2   
    13    9   19 1   
    14   11   12 1   
    15   11   17 1   
    16   11   18 1   
    17   12   13 1   
    18   12   14 1   
    19   19   20 1   
    20   19   28 1   
    21   20   21 1   
    22   20   23 1   
    23   20   29 1   
    24   21   22 2   
    25   21   41 1   
    26   23   24 1   
    27   23   30 1   
    28   23   31 1   
    29   24   25 1   
    30   24   32 1   
    31   24   33 1   
    32   25   26 1   
    33   25   34 1   
    34   25   35 1   
    35   26   27 1   
    36   26   36 1   
    37   26   37 1   
    38   27   38 1   
    39   27   39 1   
    40   27   40 1   
    41   41   42 1   
    42   41   49 1   
    43   42   43 1   
    44   42   45 1   
    45   42   50 1   
    46   43   44 2   
    47   43   53 1   
    48   45   46 1   
    49   45   51 1   
    50   45   52 1   
    51   46   47 1   
    52   46   48 1   
    53   53   54 1   
    54   53   57 1   
    55   54   55 1   
    56   54   58 1   
    57   54   59 1   
    58   55   56 2   
    59   55   60 1   
    60   60   61 1   
    61   60   68 1   
    62   61   62 1   
    63   61   64 1   
    64   61   69 1   
    65   62   63 2   
    66   62   74 1   
    67   64   65 1   
    68   64   70 1   
    69   64   71 1   
    70   65   66 1   
    71   65   67 2   
    72   66   72 1   
    73   66   73 1   
    74   74   75 1   
    75   74   78 1   
    76   75   76 1   
    77   75   79 1   
    78   75   80 1   
    79   76   77 2   
    80   76   81 1   
    81   81   82 1   
    82   81   93 1   
    83   82   83 1   
    84   82   85 1   
    85   82   94 1   
    86   83   84 2   
    87   83  102 1   
    88   85   86 1   
    89   85   95 1   
    90   85   96 1   
    91   86   87 ar  
    92   86   88 ar  
    93   87   89 ar  
    94   87   97 1   
    95   88   90 ar  
    96   88   98 1   
    97   89   91 ar  
    98   89   99 1   
    99   90   91 ar  
   100   90  100 1   
   101   91   92 1   
   102   92  101 1   
   103  102  103 1   
   104  102  110 1   
   105  103  104 1   
   106  103  106 1   
   107  103  111 1   
   108  104  105 2   
   109  104  121 1   
   110  106  107 1   
   111  106  108 1   
   112  106  112 1   
   113  107  109 1   
   114  107  113 1   
   115  107  114 1   
   116  108  115 1   
   117  108  116 1   
   118  108  117 1   
   119  109  118 1   
   120  109  119 1   
   121  109  120 1   
   122  121  122 1   
   123  121  127 1   
   124  122  123 1   
   125  122  125 1   
   126  122  128 1   
   127  123  124 2   
   128  123  132 1   
   129  125  126 1   
   130  125  129 1   
   131  125  130 1   
   132  126  131 1   
   133  132  133 1   
   134  132  137 1   
   135  133  134 1   
   136  133  136 1   
   137  133  138 1   
   138  134  135 2   
   139  134  142 1   
   140  136  139 1   
   141  136  140 1   
   142  136  141 1   
   143  142  143 1   
   144  142  147 1   
   145  143  144 1   
   146  143  146 1   
   147  143  148 1   
   148  144  145 2   
   149  144  152 1   
   150  146  149 1   
   151  146  150 1   
   152  146  151 1   
   153  152  153 1   
   154  152  161 1   
   155  153  154 1   
   156  153  156 1   
   157  153  162 1   
   158  154  155 2   
   159  154  167 1   
   160  156  157 1   
   161  156  163 1   
   162  156  164 1   
   163  157  158 1   
   164  157  165 1   
   165  157  166 1   
   166  158  159 1   
   167  158  160 1   
   168  167  168 1   
   169  167  172 1   
   170  168  169 1   
   171  168  170 1   
   172  168  171 1   
   173  174  175 1   
   174  174  176 1   
@<TRIPOS>SUBSTRUCTURE
     1 MOL         1 TEMP              0 ****  ****    0 ROOT
