@<TRIPOS>MOLECULE
MOL
  189   185     1     0     0
SMALL
resp


@<TRIPOS>ATOM
      1 C1         -1.3070    3.9510    5.3370 c3        1 MOL     -0.396024
      2 C2         -1.0490    3.2310    3.9800 c         1 MOL      0.740609
      3 O1         -0.1440    3.5450    3.2400 o         1 MOL     -0.617002
      4 H1         -1.4020    5.0240    5.1650 hc        1 MOL      0.099379
      5 H2         -2.2270    3.5720    5.7810 hc        1 MOL      0.099379
      6 H3         -0.4720    3.7640    6.0120 hc        1 MOL      0.099379
      7 N1         -1.8800    2.3400    3.5660 n         1 MOL     -0.515280
      8 C3         -2.2040    1.9740    2.1370 c3        1 MOL      0.093969
      9 C4         -2.6730    3.2700    1.3350 c         1 MOL      0.434078
     10 O2         -3.4870    4.0790    1.7890 o         1 MOL     -0.529012
     11 C5         -3.3220    0.9550    2.2000 c3        1 MOL     -0.253056
     12 C6         -4.0650    0.5120    0.9220 c         1 MOL      0.859576
     13 O3         -3.4020    0.5400   -0.1410 o         1 MOL     -0.652431
     14 O4         -5.3010    0.2740    0.9290 o         1 MOL     -0.652431
     15 H4         -2.5980    2.1090    4.2500 hn        1 MOL      0.308768
     16 H5         -1.3250    1.5230    1.6730 h1        1 MOL      0.032008
     17 H6         -4.0480    1.4810    2.8260 hc        1 MOL      0.035585
     18 H7         -2.9840    0.0890    2.7720 hc        1 MOL      0.035585
     19 N2         -2.2160    3.3680    0.1020 n         1 MOL     -0.153616
     20 C7         -2.2810    4.5920   -0.7700 c3        1 MOL      0.019107
     21 C8         -3.0270    4.4840   -2.0800 c         1 MOL      0.572468
     22 O5         -2.9720    5.3110   -2.9710 o         1 MOL     -0.563295
     23 C9         -0.8860    5.2060   -0.9490 c3        1 MOL     -0.079355
     24 C10        -0.2500    5.6040    0.4190 c3        1 MOL     -0.084211
     25 C11        -1.0620    6.5540    1.3000 c3        1 MOL      0.173431
     26 C12        -0.1720    7.0450    2.3670 c3        1 MOL      0.080481
     27 N3         -0.9260    7.9690    3.2590 n4        1 MOL     -0.450530
     28 H8         -1.8960    2.5220   -0.3360 hn        1 MOL      0.113667
     29 H9         -2.8360    5.2850   -0.1290 h1        1 MOL     -0.007361
     30 H10        -1.0170    5.9910   -1.7010 hc        1 MOL      0.049931
     31 H11        -0.4000    4.3840   -1.4890 hc        1 MOL      0.049931
     32 H12         0.5190    6.3390    0.1630 hc        1 MOL      0.013194
     33 H13         0.1210    4.7930    1.0410 hc        1 MOL      0.013194
     34 H14        -1.9660    6.0770    1.6730 hc        1 MOL     -0.020268
     35 H15        -1.3670    7.4470    0.7460 hc        1 MOL     -0.020268
     36 H16         0.6360    7.5810    1.8740 hx        1 MOL      0.066306
     37 H17         0.3280    6.2470    2.9120 hx        1 MOL      0.066306
     38 H18        -0.2820    8.4710    3.8650 hn        1 MOL      0.337037
     39 H19        -1.3120    8.7550    2.7730 hn        1 MOL      0.337037
     40 H20        -1.6080    7.5160    3.8610 hn        1 MOL      0.337037
     41 N4         -3.6990    3.3930   -2.2670 n         1 MOL     -0.460444
     42 C13        -4.4980    3.0830   -3.4040 c3        1 MOL      0.066288
     43 C14        -5.8560    2.3210   -3.0740 c         1 MOL      0.322996
     44 O6         -6.7630    2.3070   -3.9220 o         1 MOL     -0.508932
     45 C15        -3.6730    2.3010   -4.4870 c3        1 MOL      0.000433
     46 C16        -2.6540    1.2830   -4.0810 c         1 MOL      0.731856
     47 O7         -3.0000    0.4800   -3.1880 o         1 MOL     -0.708782
     48 O8         -1.5310    1.3120   -4.6270 o         1 MOL     -0.708782
     49 H21        -3.5770    2.7700   -1.4780 hn        1 MOL      0.280334
     50 H22        -4.8420    3.9930   -3.8890 h1        1 MOL      0.087144
     51 H23        -3.2210    3.1190   -5.0540 hc        1 MOL      0.004701
     52 H24        -4.3570    1.9500   -5.2530 hc        1 MOL      0.004701
     53 N5         -5.9850    1.8520   -1.8880 n         1 MOL     -0.070184
     54 C17        -7.1410    1.1000   -1.4610 c3        1 MOL     -0.251574
     55 C18        -7.1650   -0.3320   -1.9910 c         1 MOL      0.614524
     56 O9         -8.1150   -0.7220   -2.6960 o         1 MOL     -0.573998
     57 H25        -5.3060    2.1630   -1.2140 hn        1 MOL      0.148505
     58 H26        -8.0670    1.5630   -1.8020 h1        1 MOL      0.107510
     59 H27        -7.2050    1.1220   -0.3650 h1        1 MOL      0.107510
     60 N6         -6.3150   -1.1940   -1.4890 n         1 MOL     -0.159471
     61 C19        -6.5600   -2.5780   -1.5110 c3        1 MOL     -0.089359
     62 C20        -6.5700   -3.2270   -0.1180 c         1 MOL      0.457739
     63 O10        -6.7010   -4.4320    0.0200 o         1 MOL     -0.495478
     64 C21        -5.5880   -3.3370   -2.4330 c3        1 MOL     -0.010874
     65 C22        -4.1040   -2.9210   -2.2150 c         1 MOL      0.592237
     66 O11        -3.7060   -2.4180   -1.0930 o         1 MOL     -0.646031
     67 O12        -3.2240   -3.0310   -3.0440 o         1 MOL     -0.646031
     68 H28        -5.6200   -0.8640   -0.8390 hn        1 MOL     -0.036127
     69 H29        -7.5770   -2.7190   -1.8690 h1        1 MOL      0.106945
     70 H30        -5.8610   -3.1710   -3.4720 hc        1 MOL      0.039780
     71 H31        -5.7320   -4.4140   -2.3710 hc        1 MOL      0.039780
     72 N7         -6.4570   -2.4020    0.9670 n         1 MOL     -0.324041
     73 C23        -6.3640   -2.8460    2.3150 c3        1 MOL      0.120867
     74 C24        -5.0930   -3.7320    2.6050 c         1 MOL      0.534880
     75 O13        -5.0290   -4.6960    3.2800 o         1 MOL     -0.543596
     76 H32        -6.2470   -1.4270    0.8290 hn        1 MOL      0.242685
     77 H33        -7.2700   -3.3020    2.6950 h1        1 MOL     -0.000831
     78 H34        -6.1920   -1.9640    2.9440 h1        1 MOL     -0.000831
     79 N8         -4.0030   -3.3050    1.9130 n         1 MOL     -0.373531
     80 C25        -2.6720   -4.0250    1.9570 c3        1 MOL     -0.149776
     81 C26        -1.5770   -2.9510    1.7390 c         1 MOL      0.608492
     82 O14        -1.8010   -2.0020    0.9600 o         1 MOL     -0.674389
     83 C27        -2.4660   -5.0840    0.8760 c3        1 MOL      0.611494
     84 C28        -2.9150   -6.4210    1.4580 c3        1 MOL     -0.442872
     85 O15        -3.1840   -4.9000   -0.3460 oh        1 MOL     -0.699420
     86 H35        -4.0170   -2.7220    1.0840 hn        1 MOL      0.187293
     87 H36        -2.4970   -4.4790    2.9300 h1        1 MOL      0.115275
     88 H37        -1.4100   -5.0930    0.6120 h1        1 MOL     -0.089741
     89 H38        -3.2350   -3.9650   -0.5180 ho        1 MOL      0.511168
     90 H39        -2.4560   -6.4490    2.4490 hc        1 MOL      0.102068
     91 H40        -4.0030   -6.5010    1.4650 hc        1 MOL      0.102068
     92 H41        -2.5500   -7.2760    0.8940 hc        1 MOL      0.102068
     93 N9         -0.4170   -3.1370    2.4140 n         1 MOL     -0.576420
     94 C29         0.7920   -2.2590    2.4450 c3        1 MOL      0.098014
     95 C30         1.9300   -2.9230    1.8020 c         1 MOL      0.543690
     96 O16         2.2850   -4.0070    2.1760 o         1 MOL     -0.570644
     97 C31         1.1020   -1.8850    3.9300 c3        1 MOL     -0.046175
     98 C32        -0.1080   -1.1020    4.5660 c3        1 MOL      0.054177
     99 C33         2.4390   -1.0860    4.1290 c3        1 MOL     -0.399637
    100 C34        -0.0600   -0.9150    6.1400 c3        1 MOL     -0.221313
    101 H42        -0.4230   -3.8950    3.0760 hn        1 MOL      0.279112
    102 H43         0.5110   -1.3740    1.8770 h1        1 MOL      0.182807
    103 H44         1.2840   -2.8290    4.4430 hc        1 MOL      0.057284
    104 H45        -1.1160   -1.4830    4.3860 hc        1 MOL      0.024016
    105 H46        -0.2820   -0.1330    4.0930 hc        1 MOL      0.024016
    106 H47         2.2550   -0.0270    3.9450 hc        1 MOL      0.108459
    107 H48         2.6630   -1.1140    5.1910 hc        1 MOL      0.108459
    108 H49         3.2400   -1.6020    3.5860 hc        1 MOL      0.108459
    109 H50         0.9070   -0.5670    6.5000 hc        1 MOL      0.054932
    110 H51        -0.7160   -0.0800    6.4160 hc        1 MOL      0.054932
    111 H52        -0.2800   -1.8360    6.6700 hc        1 MOL      0.054932
    112 N10         2.4600   -2.3160    0.7580 n         1 MOL     -0.090274
    113 C35         3.6610   -2.7850    0.0280 c3        1 MOL     -0.045146
    114 C36         4.9470   -2.1800    0.6310 c         1 MOL      0.332705
    115 O17         4.7950   -1.3600    1.5470 o         1 MOL     -0.248319
    116 C37         3.6470   -2.3790   -1.4950 c3        1 MOL      0.091068
    117 C38         2.3790   -2.7220   -2.2810 c3        1 MOL     -0.328378
    118 O18         3.7930   -0.9870   -1.6100 oh        1 MOL     -0.316986
    119 H53         1.8840   -1.5870    0.3730 hn        1 MOL      0.033052
    120 H54         3.7600   -3.8570    0.1760 h1        1 MOL      0.079841
    121 H55         4.5540   -2.7520   -1.9780 h1        1 MOL      0.006716
    122 H56         3.6030   -0.7960   -2.5400 ho        1 MOL      0.339364
    123 H57         2.4080   -3.8050   -2.4390 hc        1 MOL      0.099927
    124 H58         1.4660   -2.4130   -1.7940 hc        1 MOL      0.099927
    125 H59         2.2770   -2.2330   -3.2520 hc        1 MOL      0.099927
    126 N11         6.1090   -2.5610    0.0750 n         1 MOL     -0.249926
    127 C39         7.3760   -1.9220    0.4340 c3        1 MOL     -0.438849
    128 C40         7.3700   -0.4480    0.1290 c         1 MOL      0.382423
    129 O19         7.6680    0.2740    1.0950 o         1 MOL     -0.443246
    130 C41         8.5330   -2.5550   -0.3210 c3        1 MOL      0.560568
    131 C42         8.8150   -3.9030    0.1210 c3        1 MOL     -0.563334
    132 O20         8.2910   -2.5030   -1.7020 oh        1 MOL     -0.616183
    133 H60         6.1390   -3.2350   -0.6780 hn        1 MOL      0.279005
    134 H61         7.4850   -2.1010    1.5090 h1        1 MOL      0.231315
    135 H62         9.4170   -1.9470   -0.1330 h1        1 MOL      0.004900
    136 H63         9.1020   -2.1780   -2.1080 ho        1 MOL      0.311701
    137 H64         9.7940   -4.1180   -0.3060 hc        1 MOL      0.152994
    138 H65         8.8930   -3.8300    1.2050 hc        1 MOL      0.152994
    139 H66         8.0640   -4.5930   -0.2480 hc        1 MOL      0.152994
    140 N12         6.8060    0.0320   -1.0150 n         1 MOL     -0.302797
    141 C43         6.4680    1.4110   -1.3630 c3        1 MOL      0.081410
    142 C44         5.6000    2.1750   -0.3250 c         1 MOL      0.333764
    143 O21         5.9640    3.3110    0.0510 o         1 MOL     -0.503857
    144 C45         5.9400    1.4000   -2.8320 c3        1 MOL     -0.340568
    145 C46         6.9030    1.5380   -3.9350 c3        1 MOL      0.053352
    146 C47         7.5410    0.2090   -4.3730 c3        1 MOL     -0.126662
    147 C48         8.7880    0.4300   -5.3000 c3        1 MOL      0.018838
    148 N13         9.5780   -0.7940   -5.1960 n4        1 MOL     -0.174066
    149 H67         6.5610   -0.7100   -1.6440 hn        1 MOL      0.264966
    150 H68         7.3800    1.9930   -1.3000 h1        1 MOL      0.073271
    151 H69         5.2740    2.2510   -2.9830 hc        1 MOL      0.128118
    152 H70         5.4080    0.4470   -2.8730 hc        1 MOL      0.128118
    153 H71         7.7210    2.1730   -3.6040 hc        1 MOL      0.054530
    154 H72         6.4100    2.1180   -4.7200 hc        1 MOL      0.054530
    155 H73         6.7360   -0.3820   -4.8110 hc        1 MOL      0.040551
    156 H74         7.8490   -0.3920   -3.5230 hc        1 MOL      0.040551
    157 H75         9.3500    1.2690   -4.8860 hx        1 MOL      0.083401
    158 H76         8.4500    0.7060   -6.3070 hx        1 MOL      0.083401
    159 H77         9.8510   -1.0440   -4.2550 hn        1 MOL      0.258909
    160 H78         9.1040   -1.5950   -5.6030 hn        1 MOL      0.258909
    161 H79        10.4330   -0.6910   -5.7100 hn        1 MOL      0.258909
    162 N14         4.6830    1.4110    0.2990 n         1 MOL     -0.000681
    163 C49         3.7880    1.9570    1.3320 c3        1 MOL     -0.147487
    164 C50         4.3430    1.8090    2.8360 c         1 MOL      0.442595
    165 O22         3.8670    2.4620    3.8080 o         1 MOL     -0.537269
    166 C51         2.4400    1.3040    1.2810 c3        1 MOL      0.036316
    167 C52         1.7480    1.8310   -0.0310 c3        1 MOL      0.029369
    168 C53         0.5680    0.9230   -0.5220 c         1 MOL      0.358397
    169 O23         0.6610   -0.2930   -0.4890 o         1 MOL     -0.556797
    170 O24        -0.4310    1.4140   -1.0500 o         1 MOL     -0.556797
    171 H80         4.5710    0.4890   -0.0950 hn        1 MOL     -0.080795
    172 H81         3.7230    3.0450    1.2770 h1        1 MOL      0.112965
    173 H82         1.8580    1.5210    2.1730 hc        1 MOL      0.054359
    174 H83         2.5530    0.2190    1.1890 hc        1 MOL      0.054359
    175 H84         2.4440    1.9300   -0.8650 hc        1 MOL      0.016697
    176 H85         1.4400    2.8780    0.0570 hc        1 MOL      0.016697
    177 N15         5.3860    0.9870    3.0460 n         1 MOL     -0.147622
    178 C54         5.8370    0.6060    4.3560 c3        1 MOL     -0.238398
    179 H86         4.9760    0.4480    5.0040 h1        1 MOL      0.092167
    180 H87         6.4140   -0.3160    4.2870 h1        1 MOL      0.092167
    181 H88         6.4630    1.3970    4.7690 h1        1 MOL      0.092167
    182 H89         5.6480    0.3820    2.2800 hn        1 MOL      0.158735
    183 Ca1        -1.6350   -0.8090   -1.4670 Ca        1 MOL      1.754073
    184 O25        -0.2810   -0.6150   -3.7880 oh        1 MOL     -0.902327
    185 H90         0.3710   -0.9590   -4.3990 ho        1 MOL      0.405608
    186 H91        -0.6550    0.1500   -4.2400 ho        1 MOL      0.405608
    187 O26        -0.8410   -3.2720   -1.8730 oh        1 MOL     -0.902327
    188 H92        -0.1880   -3.7650   -2.3740 ho        1 MOL      0.405608
    189 H93        -1.6790   -3.6210   -2.1530 ho        1 MOL      0.405608
@<TRIPOS>BOND
     1    1    2 1   
     2    1    4 1   
     3    1    5 1   
     4    1    6 1   
     5    2    3 2   
     6    2    7 1   
     7    7    8 1   
     8    7   15 1   
     9    8    9 1   
    10    8   11 1   
    11    8   16 1   
    12    9   10 2   
    13    9   19 1   
    14   11   12 1   
    15   11   17 1   
    16   11   18 1   
    17   12   13 1   
    18   12   14 1   
    19   19   20 1   
    20   19   28 1   
    21   20   21 1   
    22   20   23 1   
    23   20   29 1   
    24   21   22 2   
    25   21   41 1   
    26   23   24 1   
    27   23   30 1   
    28   23   31 1   
    29   24   25 1   
    30   24   32 1   
    31   24   33 1   
    32   25   26 1   
    33   25   34 1   
    34   25   35 1   
    35   26   27 1   
    36   26   36 1   
    37   26   37 1   
    38   27   38 1   
    39   27   39 1   
    40   27   40 1   
    41   41   42 1   
    42   41   49 1   
    43   42   43 1   
    44   42   45 1   
    45   42   50 1   
    46   43   44 2   
    47   43   53 1   
    48   45   46 1   
    49   45   51 1   
    50   45   52 1   
    51   46   47 1   
    52   46   48 1   
    53   53   54 1   
    54   53   57 1   
    55   54   55 1   
    56   54   58 1   
    57   54   59 1   
    58   55   56 2   
    59   55   60 1   
    60   60   61 1   
    61   60   68 1   
    62   61   62 1   
    63   61   64 1   
    64   61   69 1   
    65   62   63 2   
    66   62   72 1   
    67   64   65 1   
    68   64   70 1   
    69   64   71 1   
    70   65   66 1   
    71   65   67 1   
    72   72   73 1   
    73   72   76 1   
    74   73   74 1   
    75   73   77 1   
    76   73   78 1   
    77   74   75 2   
    78   74   79 1   
    79   79   80 1   
    80   79   86 1   
    81   80   81 1   
    82   80   83 1   
    83   80   87 1   
    84   81   82 2   
    85   81   93 1   
    86   83   84 1   
    87   83   85 1   
    88   83   88 1   
    89   84   90 1   
    90   84   91 1   
    91   84   92 1   
    92   85   89 1   
    93   93   94 1   
    94   93  101 1   
    95   94   95 1   
    96   94   97 1   
    97   94  102 1   
    98   95   96 2   
    99   95  112 1   
   100   97   98 1   
   101   97   99 1   
   102   97  103 1   
   103   98  100 1   
   104   98  104 1   
   105   98  105 1   
   106   99  106 1   
   107   99  107 1   
   108   99  108 1   
   109  100  109 1   
   110  100  110 1   
   111  100  111 1   
   112  112  113 1   
   113  112  119 1   
   114  113  114 1   
   115  113  116 1   
   116  113  120 1   
   117  114  115 2   
   118  114  126 1   
   119  116  117 1   
   120  116  118 1   
   121  116  121 1   
   122  117  123 1   
   123  117  124 1   
   124  117  125 1   
   125  118  122 1   
   126  126  127 1   
   127  126  133 1   
   128  127  128 1   
   129  127  130 1   
   130  127  134 1   
   131  128  129 2   
   132  128  140 1   
   133  130  131 1   
   134  130  132 1   
   135  130  135 1   
   136  131  137 1   
   137  131  138 1   
   138  131  139 1   
   139  132  136 1   
   140  140  141 1   
   141  140  149 1   
   142  141  142 1   
   143  141  144 1   
   144  141  150 1   
   145  142  143 2   
   146  142  162 1   
   147  144  145 1   
   148  144  151 1   
   149  144  152 1   
   150  145  146 1   
   151  145  153 1   
   152  145  154 1   
   153  146  147 1   
   154  146  155 1   
   155  146  156 1   
   156  147  148 1   
   157  147  157 1   
   158  147  158 1   
   159  148  159 1   
   160  148  160 1   
   161  148  161 1   
   162  162  163 1   
   163  162  171 1   
   164  163  164 1   
   165  163  166 1   
   166  163  172 1   
   167  164  165 2   
   168  164  177 1   
   169  166  167 1   
   170  166  173 1   
   171  166  174 1   
   172  167  168 1   
   173  167  175 1   
   174  167  176 1   
   175  168  169 1   
   176  168  170 1   
   177  177  178 1   
   178  177  182 1   
   179  178  179 1   
   180  178  180 1   
   181  178  181 1   
   182  184  185 1   
   183  184  186 1   
   184  187  188 1   
   185  187  189 1   
@<TRIPOS>SUBSTRUCTURE
     1 MOL         1 TEMP              0 ****  ****    0 ROOT
