@<TRIPOS>MOLECULE
MOL
  183   181     1     0     0
SMALL
resp


@<TRIPOS>ATOM
      1 C1          0.1300    2.4970   -5.8260 c3        1 MOL     -0.335259
      2 C2          0.5840    2.3120   -4.3850 c         1 MOL      0.773044
      3 O1         -0.1050    2.8060   -3.5040 o         1 MOL     -0.566391
      4 H1          0.7500    1.8870   -6.4830 hc        1 MOL      0.075736
      5 H2         -0.9120    2.1890   -5.9210 hc        1 MOL      0.075736
      6 H3          0.2260    3.5460   -6.1070 hc        1 MOL      0.075736
      7 N1          1.7370    1.5800   -4.1630 n         1 MOL     -0.731686
      8 C3          2.3940    1.4900   -2.9110 c3        1 MOL      0.240696
      9 C4          2.8940    2.8810   -2.4760 c         1 MOL      0.581935
     10 O2          3.6460    3.5360   -3.2040 o         1 MOL     -0.591616
     11 C5          3.5390    0.3980   -2.9260 c3        1 MOL     -0.281477
     12 C6          4.3410    0.2740   -1.6670 c         1 MOL      0.787499
     13 O3          5.4810   -0.2960   -1.8020 o         1 MOL     -0.664843
     14 O4          3.8490    0.7450   -0.6340 o         1 MOL     -0.664843
     15 H4          2.3250    1.3940   -4.9560 hn        1 MOL      0.351278
     16 H5          1.7170    1.0850   -2.1520 h1        1 MOL     -0.031287
     17 H6          4.1650    0.6460   -3.7850 hc        1 MOL      0.047938
     18 H7          3.0130   -0.5210   -3.1620 hc        1 MOL      0.047938
     19 N2          2.3780    3.3440   -1.3030 n         1 MOL     -0.265752
     20 C7          2.5330    4.7460   -0.9130 c3        1 MOL     -0.301739
     21 C8          3.5900    4.9210    0.1870 c         1 MOL      0.682322
     22 O5          4.2100    5.9260    0.3440 o         1 MOL     -0.590252
     23 C9          1.2050    5.3730   -0.3850 c3        1 MOL      0.249441
     24 C10        -0.0410    4.9660   -1.2030 c3        1 MOL     -0.059550
     25 C11         1.3740    6.9590   -0.5100 c3        1 MOL     -0.247909
     26 C12        -1.4230    5.3310   -0.6450 c3        1 MOL     -0.043640
     27 H8          1.8050    2.8350   -0.6410 hn        1 MOL      0.288082
     28 H9          2.7900    5.3250   -1.7970 h1        1 MOL      0.109221
     29 H10         1.0410    5.0650    0.6540 hc        1 MOL     -0.003170
     30 H11        -0.0870    3.8740   -1.2400 hc        1 MOL      0.040712
     31 H12        -0.0410    5.3240   -2.2320 hc        1 MOL      0.040712
     32 H13         1.4720    7.3590   -1.5230 hc        1 MOL      0.041989
     33 H14         0.4510    7.3990   -0.1270 hc        1 MOL      0.041989
     34 H15         2.1630    7.2820    0.1660 hc        1 MOL      0.041989
     35 H16        -1.4750    5.3980    0.4430 hc        1 MOL     -0.007171
     36 H17        -1.6370    6.3440   -0.9900 hc        1 MOL     -0.007171
     37 H18        -2.2800    4.7430   -0.9890 hc        1 MOL     -0.007171
     38 N3          3.9730    3.7980    0.8910 n         1 MOL     -0.409015
     39 C13         5.1070    3.7800    1.8360 c3        1 MOL      0.184646
     40 C14         6.2870    2.8820    1.4740 c         1 MOL      0.372273
     41 O6          7.2180    2.6930    2.2970 o         1 MOL     -0.511967
     42 C15         4.6060    3.5320    3.2600 c3        1 MOL     -0.369699
     43 C16         3.8670    2.1820    3.3900 c         1 MOL      0.886942
     44 O7          3.8580    1.4110    2.4730 o         1 MOL     -0.744289
     45 O8          3.4110    1.7510    4.4790 o         1 MOL     -0.744289
     46 H19         3.4870    2.9190    0.7450 hn        1 MOL      0.189443
     47 H20         5.5180    4.7870    1.8050 h1        1 MOL      0.061115
     48 H21         3.9270    4.3440    3.5260 hc        1 MOL      0.068988
     49 H22         5.4190    3.4400    3.9830 hc        1 MOL      0.068988
     50 N4          6.3340    2.3420    0.2500 n         1 MOL     -0.254677
     51 C17         7.4650    1.7380   -0.4300 c3        1 MOL     -0.055560
     52 C18         8.0290    0.4570    0.2540 c         1 MOL      0.409242
     53 O9          9.2880    0.3480    0.4320 o         1 MOL     -0.596529
     54 H23         5.4400    2.4370   -0.2150 hn        1 MOL      0.171254
     55 H24         8.2710    2.4630   -0.5100 h1        1 MOL      0.062931
     56 H25         7.1310    1.4800   -1.4310 h1        1 MOL      0.062931
     57 N5          7.1660   -0.4300    0.6870 n         1 MOL     -0.055790
     58 C19         7.4650   -1.7600    1.2760 c3        1 MOL     -0.137245
     59 C20         7.3230   -2.9260    0.2360 c         1 MOL      0.386037
     60 O10         7.6650   -4.1030    0.4990 o         1 MOL     -0.559310
     61 C21         6.5830   -2.0770    2.5300 c3        1 MOL     -0.021491
     62 C22         5.0580   -1.9960    2.2160 c         1 MOL      0.643522
     63 O11         4.2110   -1.8520    3.1280 o         1 MOL     -0.688391
     64 O12         4.6300   -2.0040    1.0380 o         1 MOL     -0.688391
     65 H26         6.1900   -0.3490    0.4580 hn        1 MOL      0.126406
     66 H27         8.4900   -1.8160    1.6510 h1        1 MOL      0.113413
     67 H28         6.7860   -1.5030    3.4300 hc        1 MOL      0.025012
     68 H29         6.8260   -3.0730    2.8860 hc        1 MOL      0.025012
     69 N6          6.8360   -2.6280   -0.9880 n         1 MOL     -0.116866
     70 C23         6.7170   -3.5890   -2.0920 c3        1 MOL     -0.219578
     71 C24         5.3010   -4.1410   -2.2460 c         1 MOL      0.623749
     72 O13         5.1400   -4.9500   -3.1870 o         1 MOL     -0.632747
     73 H30         6.5090   -1.6850   -1.1320 hn        1 MOL      0.152601
     74 H31         7.3930   -4.4420   -2.0120 h1        1 MOL      0.093024
     75 H32         6.8870   -2.9710   -2.9730 h1        1 MOL      0.093024
     76 N7          4.3070   -3.6620   -1.5360 n         1 MOL     -0.270671
     77 C25         2.9490   -4.1440   -1.7190 c3        1 MOL     -0.026288
     78 C26         1.8870   -3.0440   -1.5060 c         1 MOL      0.675618
     79 O14         2.2270   -1.9750   -0.9540 o         1 MOL     -0.812292
     80 C27         2.7490   -5.4480   -0.9210 c3        1 MOL     -0.114019
     81 C28         3.0780   -5.1490    0.5690 c3        1 MOL     -0.191306
     82 C29         1.9470   -4.3960    1.2370 c         1 MOL      0.575043
     83 N8          0.9590   -5.2020    1.6090 n         1 MOL     -0.714195
     84 O15         1.9200   -3.2070    1.4450 o         1 MOL     -0.524536
     85 H33         4.5160   -3.1560   -0.6920 hn        1 MOL      0.279331
     86 H34         2.8380   -4.4500   -2.7620 h1        1 MOL      0.043723
     87 H35         3.4860   -6.1850   -1.2470 hc        1 MOL      0.039535
     88 H36         1.7230   -5.7860   -1.0220 hc        1 MOL      0.039535
     89 H37         4.0160   -4.6070    0.6940 hc        1 MOL      0.076634
     90 H38         3.3080   -6.1140    1.0170 hc        1 MOL      0.076634
     91 H39         1.0080   -6.1720    1.3260 hn        1 MOL      0.325450
     92 H40         0.1650   -4.7820    2.0680 hn        1 MOL      0.325450
     93 N9          0.6530   -3.3540   -1.8680 n         1 MOL     -0.416427
     94 C30        -0.4730   -2.3700   -1.8640 c3        1 MOL      0.118935
     95 C31        -1.5820   -2.9430   -1.0220 c         1 MOL      0.359742
     96 O16        -2.1650   -3.9550   -1.3790 o         1 MOL     -0.556305
     97 C32        -1.0660   -2.1680   -3.2470 c3        1 MOL      0.136804
     98 C33        -2.0620   -0.9440   -3.3320 c3        1 MOL     -0.370635
     99 C34         0.0810   -1.8400   -4.2810 c3        1 MOL     -0.370635
    100 H41         0.4530   -4.2300   -2.3180 hn        1 MOL      0.280230
    101 H42        -0.0820   -1.4140   -1.5140 h1        1 MOL      0.202670
    102 H43        -1.4710   -3.1460   -3.5190 hc        1 MOL      0.001096
    103 H44        -1.6310    0.0270   -3.0830 hc        1 MOL      0.085358
    104 H45        -2.4280   -0.9450   -4.3610 hc        1 MOL      0.085358
    105 H46        -2.8300   -1.1260   -2.5820 hc        1 MOL      0.085358
    106 H47         0.6560   -0.9740   -3.9570 hc        1 MOL      0.085358
    107 H48         0.8450   -2.6030   -4.4410 hc        1 MOL      0.085358
    108 H49        -0.2280   -1.5680   -5.2960 hc        1 MOL      0.085358
    109 N10        -1.9900   -2.2260    0.0440 n         1 MOL     -0.073869
    110 C35        -3.1700   -2.5620    0.8750 c3        1 MOL      0.039673
    111 C36        -4.4330   -1.9160    0.3030 c         1 MOL      0.419518
    112 O17        -4.3040   -1.0360   -0.5660 o         1 MOL     -0.283249
    113 C37        -2.9120   -2.1540    2.3250 c3        1 MOL     -0.150547
    114 C38        -1.5670   -2.7620    2.8120 c         1 MOL      0.568441
    115 N11        -0.8150   -1.8250    3.3620 n         1 MOL     -0.668298
    116 O18        -1.1970   -3.9570    2.7340 o         1 MOL     -0.533810
    117 H50        -1.4330   -1.3940    0.1490 hn        1 MOL      0.025784
    118 H51        -3.3410   -3.6380    0.9230 h1        1 MOL      0.039469
    119 H52        -3.7940   -2.5060    2.8570 hc        1 MOL      0.029794
    120 H53        -2.8740   -1.0710    2.2640 hc        1 MOL      0.029794
    121 H54        -1.0910   -0.8670    3.1940 hn        1 MOL      0.377194
    122 H55         0.1340   -2.1220    3.5050 hn        1 MOL      0.377194
    123 N12        -5.6060   -2.3030    0.7310 n         1 MOL     -0.537206
    124 C39        -6.8340   -1.7310    0.1140 c3        1 MOL      0.057272
    125 C40        -6.9890   -0.2020    0.2130 c         1 MOL      0.616602
    126 O19        -7.3190    0.4860   -0.7110 o         1 MOL     -0.519562
    127 C41        -8.1330   -2.3400    0.6440 c3        1 MOL     -0.063233
    128 C42        -9.4770   -1.8510    0.1410 ca        1 MOL     -0.126353
    129 C43        -9.9440   -2.1990   -1.1450 ca        1 MOL     -0.017028
    130 C44       -10.2200   -0.9440    0.8790 ca        1 MOL     -0.017028
    131 C45       -11.1220   -1.5640   -1.5930 ca        1 MOL     -0.352145
    132 C46       -11.5000   -0.5380    0.5200 ca        1 MOL     -0.352145
    133 C47       -11.9070   -0.7910   -0.7610 ca        1 MOL      0.454917
    134 O20       -13.1460   -0.4190   -1.1600 oh        1 MOL     -0.530332
    135 H56        -5.6030   -2.9910    1.4670 hn        1 MOL      0.348978
    136 H57        -6.8240   -1.8940   -0.9630 h1        1 MOL      0.093309
    137 H58        -8.0760   -2.4000    1.7320 hc        1 MOL      0.040475
    138 H59        -8.0590   -3.4140    0.4800 hc        1 MOL      0.040475
    139 H60        -9.3370   -2.8330   -1.7760 ha        1 MOL      0.102743
    140 H61        -9.8460   -0.6160    1.8340 ha        1 MOL      0.102743
    141 H62       -11.3720   -1.7870   -2.6160 ha        1 MOL      0.156197
    142 H63       -12.0760    0.1700    1.1030 ha        1 MOL      0.156197
    143 H64       -13.4950    0.1680   -0.4950 ho        1 MOL      0.361588
    144 N13        -6.6010    0.3090    1.4270 n         1 MOL     -0.489303
    145 C48        -6.4420    1.7430    1.8210 c3        1 MOL      0.089637
    146 C49        -5.5590    2.4570    0.8540 c         1 MOL      0.380451
    147 O21        -5.6070    3.6930    0.8350 o         1 MOL     -0.545916
    148 C50        -5.9320    1.7640    3.2820 c3        1 MOL     -0.237529
    149 C51        -4.5990    1.1670    3.6380 c3        1 MOL     -0.160303
    150 C52        -4.3610    1.2430    5.1570 c         1 MOL      0.679345
    151 O22        -3.4690    2.0250    5.5660 o         1 MOL     -0.719120
    152 O23        -4.8100    0.3630    5.9250 o         1 MOL     -0.719120
    153 H65        -6.3150   -0.3540    2.1250 hn        1 MOL      0.288553
    154 H66        -7.4040    2.2300    1.7040 h1        1 MOL      0.052643
    155 H67        -6.7270    1.3420    3.9040 hc        1 MOL      0.076568
    156 H68        -5.8310    2.8190    3.5270 hc        1 MOL      0.076568
    157 H69        -3.9030    1.8150    3.1120 hc        1 MOL      0.054241
    158 H70        -4.5350    0.1320    3.3140 hc        1 MOL      0.054241
    159 N14        -4.6710    1.7480    0.1360 n         1 MOL     -0.080593
    160 C53        -3.7110    2.2380   -0.8900 c3        1 MOL     -0.027951
    161 C54        -4.3130    2.1570   -2.3450 c         1 MOL      0.395415
    162 O24        -4.1720    2.9910   -3.1810 o         1 MOL     -0.526004
    163 C55        -2.3430    1.5340   -0.7830 c3        1 MOL      0.229660
    164 C56        -1.6790    1.5940    0.5860 c3        1 MOL     -0.152236
    165 C57        -0.2760    1.0460    0.6190 c         1 MOL      0.746183
    166 O25         0.6940    1.8160    0.5030 o         1 MOL     -0.752742
    167 O26        -0.0730   -0.1560    0.7260 o         1 MOL     -0.752742
    168 H71        -4.7960    0.7580    0.2580 hn        1 MOL      0.096106
    169 H72        -3.7190    3.3240   -0.7660 h1        1 MOL      0.107427
    170 H73        -1.7460    2.0620   -1.5310 hc        1 MOL     -0.013464
    171 H74        -2.3800    0.4650   -0.9960 hc        1 MOL     -0.013464
    172 H75        -2.3090    1.1840    1.3720 hc        1 MOL      0.024660
    173 H76        -1.5850    2.6690    0.7030 hc        1 MOL      0.024660
    174 N15        -5.0550    1.0520   -2.6150 n         1 MOL     -0.003599
    175 C58        -5.9260    0.8250   -3.7590 c3        1 MOL     -0.278668
    176 H77        -5.3630    0.3320   -4.5510 h1        1 MOL      0.094048
    177 H78        -6.7610    0.1920   -3.4600 h1        1 MOL      0.094048
    178 H79        -6.3040    1.7800   -4.1240 h1        1 MOL      0.094048
    179 H80        -5.0960    0.4580   -1.8050 hn        1 MOL     -0.017663
    180 Ca1         2.5040   -0.4800    1.1280 Ca        1 MOL      1.794805
    181 O27         1.3300    0.1740    3.5780 oh        1 MOL     -0.963913
    182 H81         0.5850    0.3330    4.1550 ho        1 MOL      0.439210
    183 H82         2.0460    0.6580    3.9720 ho        1 MOL      0.439210
@<TRIPOS>BOND
     1    1    2 1   
     2    1    4 1   
     3    1    5 1   
     4    1    6 1   
     5    2    3 2   
     6    2    7 1   
     7    7    8 1   
     8    7   15 1   
     9    8    9 1   
    10    8   11 1   
    11    8   16 1   
    12    9   10 2   
    13    9   19 1   
    14   11   12 1   
    15   11   17 1   
    16   11   18 1   
    17   12   13 1   
    18   12   14 1   
    19   19   20 1   
    20   19   27 1   
    21   20   21 1   
    22   20   23 1   
    23   20   28 1   
    24   21   22 2   
    25   21   38 1   
    26   23   24 1   
    27   23   25 1   
    28   23   29 1   
    29   24   26 1   
    30   24   30 1   
    31   24   31 1   
    32   25   32 1   
    33   25   33 1   
    34   25   34 1   
    35   26   35 1   
    36   26   36 1   
    37   26   37 1   
    38   38   39 1   
    39   38   46 1   
    40   39   40 1   
    41   39   42 1   
    42   39   47 1   
    43   40   41 2   
    44   40   50 1   
    45   42   43 1   
    46   42   48 1   
    47   42   49 1   
    48   43   44 1   
    49   43   45 1   
    50   50   51 1   
    51   50   54 1   
    52   51   52 1   
    53   51   55 1   
    54   51   56 1   
    55   52   53 2   
    56   52   57 1   
    57   57   58 1   
    58   57   65 1   
    59   58   59 1   
    60   58   61 1   
    61   58   66 1   
    62   59   60 2   
    63   59   69 1   
    64   61   62 1   
    65   61   67 1   
    66   61   68 1   
    67   62   63 1   
    68   62   64 1   
    69   69   70 1   
    70   69   73 1   
    71   70   71 1   
    72   70   74 1   
    73   70   75 1   
    74   71   72 2   
    75   71   76 1   
    76   76   77 1   
    77   76   85 1   
    78   77   78 1   
    79   77   80 1   
    80   77   86 1   
    81   78   79 2   
    82   78   93 1   
    83   80   81 1   
    84   80   87 1   
    85   80   88 1   
    86   81   82 1   
    87   81   89 1   
    88   81   90 1   
    89   82   83 1   
    90   82   84 2   
    91   83   91 1   
    92   83   92 1   
    93   93   94 1   
    94   93  100 1   
    95   94   95 1   
    96   94   97 1   
    97   94  101 1   
    98   95   96 2   
    99   95  109 1   
   100   97   98 1   
   101   97   99 1   
   102   97  102 1   
   103   98  103 1   
   104   98  104 1   
   105   98  105 1   
   106   99  106 1   
   107   99  107 1   
   108   99  108 1   
   109  109  110 1   
   110  109  117 1   
   111  110  111 1   
   112  110  113 1   
   113  110  118 1   
   114  111  112 2   
   115  111  123 1   
   116  113  114 1   
   117  113  119 1   
   118  113  120 1   
   119  114  115 1   
   120  114  116 2   
   121  115  121 1   
   122  115  122 1   
   123  123  124 1   
   124  123  135 1   
   125  124  125 1   
   126  124  127 1   
   127  124  136 1   
   128  125  126 2   
   129  125  144 1   
   130  127  128 1   
   131  127  137 1   
   132  127  138 1   
   133  128  129 ar  
   134  128  130 ar  
   135  129  131 ar  
   136  129  139 1   
   137  130  132 ar  
   138  130  140 1   
   139  131  133 ar  
   140  131  141 1   
   141  132  133 ar  
   142  132  142 1   
   143  133  134 1   
   144  134  143 1   
   145  144  145 1   
   146  144  153 1   
   147  145  146 1   
   148  145  148 1   
   149  145  154 1   
   150  146  147 2   
   151  146  159 1   
   152  148  149 1   
   153  148  155 1   
   154  148  156 1   
   155  149  150 1   
   156  149  157 1   
   157  149  158 1   
   158  150  151 1   
   159  150  152 1   
   160  159  160 1   
   161  159  168 1   
   162  160  161 1   
   163  160  163 1   
   164  160  169 1   
   165  161  162 2   
   166  161  174 1   
   167  163  164 1   
   168  163  170 1   
   169  163  171 1   
   170  164  165 1   
   171  164  172 1   
   172  164  173 1   
   173  165  166 1   
   174  165  167 1   
   175  174  175 1   
   176  174  179 1   
   177  175  176 1   
   178  175  177 1   
   179  175  178 1   
   180  181  182 1   
   181  181  183 1   
@<TRIPOS>SUBSTRUCTURE
     1 MOL         1 TEMP              0 ****  ****    0 ROOT
