@<TRIPOS>MOLECULE
MOL
  169   169     1     0     0
SMALL
resp


@<TRIPOS>ATOM
      1 C1          0.9040    4.5060    5.5170 c3        1 MOL     -0.454053
      2 C2          0.5160    4.1570    4.0600 c         1 MOL      0.684008
      3 O1          1.2430    4.4280    3.1250 o         1 MOL     -0.550781
      4 H1          1.0540    5.5830    5.6050 hc        1 MOL      0.116475
      5 H2          0.1070    4.1940    6.1910 hc        1 MOL      0.116475
      6 H3          1.8270    3.9890    5.7810 hc        1 MOL      0.116475
      7 N1         -0.7370    3.7330    3.8060 n         1 MOL     -0.515895
      8 C3         -1.2970    3.3760    2.5260 c3        1 MOL      0.142843
      9 C4         -1.7920    4.5670    1.6710 c         1 MOL      0.480777
     10 O2         -2.3990    5.5210    2.1270 o         1 MOL     -0.581305
     11 C5         -2.4340    2.3160    2.7180 c3        1 MOL     -0.365752
     12 C6         -2.8090    1.5400    1.4370 c         1 MOL      0.924851
     13 O3         -3.0650    2.1120    0.3350 o         1 MOL     -0.787289
     14 O4         -2.9970    0.3040    1.5240 o         1 MOL     -0.787289
     15 H4         -1.3130    3.6230    4.6340 hn        1 MOL      0.288237
     16 H5         -0.5460    2.8250    1.9560 h1        1 MOL      0.094365
     17 H6         -3.3770    2.7930    3.0110 hc        1 MOL      0.085213
     18 H7         -2.0620    1.6160    3.4730 hc        1 MOL      0.085213
     19 N2         -1.6020    4.5910    0.3380 n         1 MOL     -0.309156
     20 C7         -1.8940    5.6430   -0.6420 c3        1 MOL      0.055956
     21 C8         -3.1360    5.3980   -1.5500 c         1 MOL      0.564892
     22 O5         -3.5920    6.3320   -2.1660 o         1 MOL     -0.580704
     23 C9         -0.5320    5.9800   -1.2970 c3        1 MOL     -0.139329
     24 H8         -1.1870    3.7390   -0.0080 hn        1 MOL      0.318712
     25 H9         -2.1680    6.5330   -0.0710 h1        1 MOL      0.067428
     26 H10        -0.5580    6.8500   -1.9630 hc        1 MOL      0.033507
     27 H11         0.1900    6.2850   -0.5390 hc        1 MOL      0.033507
     28 H12        -0.1300    5.0740   -1.7470 hc        1 MOL      0.033507
     29 N3         -3.7350    4.1690   -1.5460 n         1 MOL     -0.345438
     30 C10        -4.8990    3.8010   -2.3570 c3        1 MOL      0.005147
     31 C11        -6.0600    3.0730   -1.5660 c         1 MOL      0.500189
     32 O6         -7.0630    2.9270   -2.2110 o         1 MOL     -0.532324
     33 C12        -4.4830    2.8210   -3.4630 c3        1 MOL     -0.106645
     34 C13        -3.6440    1.5760   -2.9400 c         1 MOL      0.778266
     35 O7         -4.2730    0.8200   -2.1770 o         1 MOL     -0.730905
     36 O8         -2.5450    1.2020   -3.3730 o         1 MOL     -0.730905
     37 H13        -3.3620    3.4170   -0.9870 hn        1 MOL      0.107833
     38 H14        -5.4270    4.6370   -2.7940 h1        1 MOL      0.080795
     39 H15        -3.8370    3.3030   -4.1960 hc        1 MOL      0.025796
     40 H16        -5.2910    2.3690   -4.0360 hc        1 MOL      0.025796
     41 N4         -5.8450    2.4760   -0.3590 n         1 MOL     -0.319149
     42 C14        -6.9180    1.8080    0.4410 c3        1 MOL     -0.304210
     43 C15        -7.4360    0.4200   -0.0290 c         1 MOL      0.637562
     44 O9         -8.5190   -0.0490    0.4080 o         1 MOL     -0.635239
     45 H17        -4.9120    2.3080   -0.0300 hn        1 MOL      0.274195
     46 H18        -7.7220    2.5390    0.4600 h1        1 MOL      0.133295
     47 H19        -6.4610    1.5780    1.4060 h1        1 MOL      0.133295
     48 N5         -6.6200   -0.3250   -0.7940 n         1 MOL     -0.354550
     49 C16        -6.9130   -1.6840   -1.2820 c3        1 MOL      0.121452
     50 C17        -6.8480   -2.8390   -0.2210 c         1 MOL      0.408179
     51 O10        -7.0300   -3.9770   -0.6440 o         1 MOL     -0.538971
     52 C18        -6.1840   -1.8860   -2.6230 c3        1 MOL     -0.301830
     53 C19        -4.7240   -2.1450   -2.4120 c         1 MOL      0.665582
     54 N6         -4.0300   -2.2700   -3.5210 n         1 MOL     -0.674743
     55 O11        -4.1650   -2.1790   -1.2860 o         1 MOL     -0.691587
     56 H20        -5.8260    0.2370   -1.0870 hn        1 MOL      0.220396
     57 H21        -7.9560   -1.6880   -1.5630 h1        1 MOL      0.083082
     58 H22        -6.2350   -1.0310   -3.2950 hc        1 MOL      0.107973
     59 H23        -6.6780   -2.7340   -3.0920 hc        1 MOL      0.107973
     60 H24        -4.5210   -2.1210   -4.3920 hn        1 MOL      0.345988
     61 H25        -3.1310   -2.7340   -3.5410 hn        1 MOL      0.345988
     62 N7         -6.5020   -2.6590    1.0190 n         1 MOL     -0.249612
     63 C20        -6.3930   -3.7270    2.0460 c3        1 MOL     -0.188719
     64 C21        -5.0030   -4.3680    2.0420 c         1 MOL      0.531397
     65 O12        -4.6830   -5.1810    2.8550 o         1 MOL     -0.571471
     66 H26        -6.3980   -1.6970    1.3180 hn        1 MOL      0.261946
     67 H27        -7.0800   -4.5420    1.8480 h1        1 MOL      0.120051
     68 H28        -6.6570   -3.3730    3.0400 h1        1 MOL      0.120051
     69 N8         -4.0870   -3.9740    1.1550 n         1 MOL     -0.160424
     70 C22        -2.7040   -4.5270    1.1580 c3        1 MOL     -0.354909
     71 C23        -1.6250   -3.4060    1.0590 c         1 MOL      0.761462
     72 O13        -1.6830   -2.4330    0.2570 o         1 MOL     -0.640017
     73 C24        -2.4380   -5.4810    0.0920 c3        1 MOL      0.363051
     74 C25        -3.1550   -6.7930    0.2220 c3        1 MOL     -0.369685
     75 O14        -2.7620   -5.0640   -1.2480 oh        1 MOL     -0.587580
     76 H29        -4.2890   -3.1680    0.5730 hn        1 MOL      0.182946
     77 H30        -2.4840   -5.0880    2.0670 h1        1 MOL      0.152578
     78 H31        -1.3650   -5.6530    0.1050 h1        1 MOL      0.078541
     79 H32        -3.6260   -4.6530   -1.1700 ho        1 MOL      0.403647
     80 H33        -2.8790   -7.2240    1.1910 hc        1 MOL      0.084614
     81 H34        -4.2300   -6.6350    0.1190 hc        1 MOL      0.084614
     82 H35        -2.8310   -7.5150   -0.5270 hc        1 MOL      0.084614
     83 N9         -0.6690   -3.5240    1.9470 n         1 MOL     -0.537186
     84 C26         0.6000   -2.8000    1.9330 c3        1 MOL      0.001544
     85 C27         1.4550   -3.0980    0.7360 c         1 MOL      0.485763
     86 O15         1.8760   -4.2500    0.6360 o         1 MOL     -0.581408
     87 C28         1.2430   -2.9990    3.2940 c3        1 MOL      0.093902
     88 C29         0.7000   -1.8870    4.2720 c3        1 MOL      0.118671
     89 C30         2.7670   -2.7860    3.2110 c3        1 MOL     -0.252355
     90 C31         1.4150   -1.7130    5.6670 c3        1 MOL     -0.187738
     91 H36        -0.7120   -4.2680    2.6250 hn        1 MOL      0.280465
     92 H37         0.3430   -1.7450    1.8410 h1        1 MOL      0.046261
     93 H38         1.0470   -3.9800    3.7180 hc        1 MOL      0.016493
     94 H39        -0.3050   -2.2400    4.5180 hc        1 MOL     -0.019303
     95 H40         0.5320   -0.9150    3.8070 hc        1 MOL     -0.019303
     96 H41         3.2580   -3.6700    2.7960 hc        1 MOL      0.046942
     97 H42         2.9420   -1.9800    2.5000 hc        1 MOL      0.046942
     98 H43         3.1600   -2.6050    4.2070 hc        1 MOL      0.046942
     99 H44         0.9570   -0.8560    6.1660 hc        1 MOL      0.038384
    100 H45         1.2250   -2.5800    6.2960 hc        1 MOL      0.038384
    101 H46         2.4620   -1.4190    5.6520 hc        1 MOL      0.038384
    102 N10         1.6850   -2.1060   -0.1660 n         1 MOL     -0.074128
    103 C32         2.6230   -2.1690   -1.2480 c3        1 MOL      0.045591
    104 C33         4.0240   -1.7230   -0.7980 c         1 MOL      0.313999
    105 O16         4.1870   -1.2040    0.2740 o         1 MOL     -0.229211
    106 C34         2.0630   -1.3500   -2.3900 c3        1 MOL     -0.091279
    107 C35         0.7290   -1.8590   -2.8620 c         1 MOL      0.616282
    108 O17        -0.2950   -1.2500   -2.4060 o         1 MOL     -0.676843
    109 O18         0.7490   -2.8940   -3.6080 o         1 MOL     -0.676843
    110 H47         1.2020   -1.2430    0.0600 hn        1 MOL      0.123613
    111 H48         2.6230   -3.2100   -1.5980 h1        1 MOL      0.049039
    112 H49         2.7270   -1.3010   -3.2510 hc        1 MOL      0.020686
    113 H50         2.0730   -0.3130   -2.0500 hc        1 MOL      0.020686
    114 N11         5.0660   -1.8820   -1.6350 n         1 MOL     -0.610732
    115 C36         6.4320   -1.4570   -1.3120 c3        1 MOL      0.487745
    116 C37         6.5830    0.0090   -1.0590 c         1 MOL      0.291508
    117 O19         7.3330    0.3480   -0.1650 o         1 MOL     -0.498408
    118 C38         7.4490   -1.9470   -2.3630 c3        1 MOL     -0.131244
    119 C39         8.9410   -1.8510   -1.9740 ca        1 MOL      0.100698
    120 C40         9.4350   -2.4190   -0.8170 ca        1 MOL     -0.207135
    121 C41         9.8190   -1.0620   -2.8180 ca        1 MOL     -0.207135
    122 C42        10.7900   -2.1800   -0.4260 ca        1 MOL     -0.080188
    123 C43        11.1280   -0.7650   -2.4040 ca        1 MOL     -0.080188
    124 C44        11.5480   -1.3750   -1.2500 ca        1 MOL     -0.107604
    125 H51         4.9430   -2.5330   -2.3950 hn        1 MOL      0.305382
    126 H52         6.6970   -1.9310   -0.3670 h1        1 MOL      0.003293
    127 H53         7.2670   -1.5920   -3.3830 hc        1 MOL      0.021185
    128 H54         7.2400   -3.0090   -2.4120 hc        1 MOL      0.021185
    129 H55         8.7580   -2.9830   -0.1930 ha        1 MOL      0.123775
    130 H56         9.3480   -0.7700   -3.7420 ha        1 MOL      0.123775
    131 H57        11.1470   -2.5840    0.5170 ha        1 MOL      0.111925
    132 H58        11.7710   -0.1340   -2.9970 ha        1 MOL      0.111925
    133 H59        12.5810   -1.2580   -0.9350 ha        1 MOL      0.075819
    134 N12         5.7950    0.8700   -1.6670 n         1 MOL     -0.062727
    135 C45         5.8900    2.2880   -1.3550 c3        1 MOL      0.030267
    136 C46         5.2570    2.6150    0.0150 c         1 MOL      0.248777
    137 O20         5.6460    3.6190    0.6250 o         1 MOL     -0.515577
    138 C47         5.2260    3.0350   -2.4740 c3        1 MOL      0.028289
    139 C48         5.3250    2.0660   -3.6670 c3        1 MOL     -0.224496
    140 C49         5.1100    0.7380   -2.9380 c3        1 MOL     -0.084959
    141 H60         6.9220    2.6460   -1.3190 h1        1 MOL      0.082045
    142 H61         4.1820    3.2860   -2.3280 hc        1 MOL      0.044520
    143 H62         5.7400    3.9830   -2.6070 hc        1 MOL      0.044520
    144 H63         4.5390    2.1690   -4.4140 hc        1 MOL      0.065627
    145 H64         6.3650    2.0460   -4.0190 hc        1 MOL      0.065627
    146 H65         4.0250    0.7620   -2.8380 h1        1 MOL      0.108228
    147 H66         5.3970   -0.1430   -3.5000 h1        1 MOL      0.108228
    148 N13         4.4010    1.7750    0.5730 n         1 MOL      0.034415
    149 C50         3.5890    2.0370    1.7440 c3        1 MOL     -0.126492
    150 C51         4.2690    1.3190    2.9400 c         1 MOL      0.451137
    151 O21         4.0610    1.6270    4.0810 o         1 MOL     -0.549288
    152 C52         2.1570    1.5320    1.5260 c3        1 MOL     -0.084148
    153 C53         1.4590    2.1820    0.2700 c3        1 MOL      0.663305
    154 C54         0.2440    1.3550   -0.2080 c         1 MOL      0.204815
    155 O22         0.0670    0.2250    0.3090 o         1 MOL     -0.602433
    156 O23        -0.6240    1.7960   -1.0240 o         1 MOL     -0.602433
    157 H67         4.3330    0.8260    0.2210 hn        1 MOL     -0.057997
    158 H68         3.5530    3.1200    1.8970 h1        1 MOL      0.108758
    159 H69         1.4690    1.8060    2.3290 hc        1 MOL      0.025680
    160 H70         2.2440    0.4500    1.4130 hc        1 MOL      0.025680
    161 H71         2.1800    2.3280   -0.5350 hc        1 MOL     -0.171083
    162 H72         1.0800    3.1890    0.4610 hc        1 MOL     -0.171083
    163 N14         4.9840    0.2050    2.6660 n         1 MOL      0.007413
    164 C55         6.0120   -0.3980    3.6050 c3        1 MOL     -0.234290
    165 H73         6.1950   -1.4350    3.3240 h1        1 MOL      0.087910
    166 H74         6.9420    0.1660    3.5360 h1        1 MOL      0.087910
    167 H75         5.6380   -0.3590    4.6280 h1        1 MOL      0.087910
    168 H76         4.9410   -0.1710    1.7220 hn        1 MOL      0.007434
    169 Ca1        -2.2220   -0.1880   -0.9270 Ca        1 MOL      1.749288
@<TRIPOS>BOND
     1    1    2 1   
     2    1    4 1   
     3    1    5 1   
     4    1    6 1   
     5    2    3 2   
     6    2    7 1   
     7    7    8 1   
     8    7   15 1   
     9    8    9 1   
    10    8   11 1   
    11    8   16 1   
    12    9   10 2   
    13    9   19 1   
    14   11   12 1   
    15   11   17 1   
    16   11   18 1   
    17   12   13 1   
    18   12   14 1   
    19   19   20 1   
    20   19   24 1   
    21   20   21 1   
    22   20   23 1   
    23   20   25 1   
    24   21   22 2   
    25   21   29 1   
    26   23   26 1   
    27   23   27 1   
    28   23   28 1   
    29   29   30 1   
    30   29   37 1   
    31   30   31 1   
    32   30   33 1   
    33   30   38 1   
    34   31   32 2   
    35   31   41 1   
    36   33   34 1   
    37   33   39 1   
    38   33   40 1   
    39   34   35 1   
    40   34   36 1   
    41   41   42 1   
    42   41   45 1   
    43   42   43 1   
    44   42   46 1   
    45   42   47 1   
    46   43   44 2   
    47   43   48 1   
    48   48   49 1   
    49   48   56 1   
    50   49   50 1   
    51   49   52 1   
    52   49   57 1   
    53   50   51 2   
    54   50   62 1   
    55   52   53 1   
    56   52   58 1   
    57   52   59 1   
    58   53   54 1   
    59   53   55 2   
    60   54   60 1   
    61   54   61 1   
    62   62   63 1   
    63   62   66 1   
    64   63   64 1   
    65   63   67 1   
    66   63   68 1   
    67   64   65 2   
    68   64   69 1   
    69   69   70 1   
    70   69   76 1   
    71   70   71 1   
    72   70   73 1   
    73   70   77 1   
    74   71   72 2   
    75   71   83 1   
    76   73   74 1   
    77   73   75 1   
    78   73   78 1   
    79   74   80 1   
    80   74   81 1   
    81   74   82 1   
    82   75   79 1   
    83   83   84 1   
    84   83   91 1   
    85   84   85 1   
    86   84   87 1   
    87   84   92 1   
    88   85   86 2   
    89   85  102 1   
    90   87   88 1   
    91   87   89 1   
    92   87   93 1   
    93   88   90 1   
    94   88   94 1   
    95   88   95 1   
    96   89   96 1   
    97   89   97 1   
    98   89   98 1   
    99   90   99 1   
   100   90  100 1   
   101   90  101 1   
   102  102  103 1   
   103  102  110 1   
   104  103  104 1   
   105  103  106 1   
   106  103  111 1   
   107  104  105 2   
   108  104  114 1   
   109  106  107 1   
   110  106  112 1   
   111  106  113 1   
   112  107  108 1   
   113  107  109 1   
   114  114  115 1   
   115  114  125 1   
   116  115  116 1   
   117  115  118 1   
   118  115  126 1   
   119  116  117 2   
   120  116  134 1   
   121  118  119 1   
   122  118  127 1   
   123  118  128 1   
   124  119  120 ar  
   125  119  121 ar  
   126  120  122 ar  
   127  120  129 1   
   128  121  123 ar  
   129  121  130 1   
   130  122  124 ar  
   131  122  131 1   
   132  123  124 ar  
   133  123  132 1   
   134  124  133 1   
   135  134  135 1   
   136  134  140 1   
   137  135  136 1   
   138  135  138 1   
   139  135  141 1   
   140  136  137 2   
   141  136  148 1   
   142  138  139 1   
   143  138  142 1   
   144  138  143 1   
   145  139  140 1   
   146  139  144 1   
   147  139  145 1   
   148  140  146 1   
   149  140  147 1   
   150  148  149 1   
   151  148  157 1   
   152  149  150 1   
   153  149  152 1   
   154  149  158 1   
   155  150  151 2   
   156  150  163 1   
   157  152  153 1   
   158  152  159 1   
   159  152  160 1   
   160  153  154 1   
   161  153  161 1   
   162  153  162 1   
   163  154  155 1   
   164  154  156 1   
   165  163  164 1   
   166  163  168 1   
   167  164  165 1   
   168  164  166 1   
   169  164  167 1   
@<TRIPOS>SUBSTRUCTURE
     1 MOL         1 TEMP              0 ****  ****    0 ROOT
