@<TRIPOS>MOLECULE
MOL
  172   171     1     0     0
SMALL
resp


@<TRIPOS>ATOM
      1 C1          0.6210    3.6040    5.3340 c3        1 MOL     -0.375421
      2 C2          0.0360    3.6520    3.9240 c         1 MOL      0.699720
      3 O1          0.6420    4.1630    3.0040 o         1 MOL     -0.550707
      4 H1          0.7760    4.6200    5.6960 hc        1 MOL      0.085378
      5 H2         -0.0700    3.0840    5.9970 hc        1 MOL      0.085378
      6 H3          1.5750    3.0760    5.3140 hc        1 MOL      0.085378
      7 N1         -1.2300    3.2760    3.8490 n         1 MOL     -0.542710
      8 C3         -1.9960    3.1880    2.5700 c3        1 MOL      0.113193
      9 C4         -2.2780    4.5090    1.8440 c         1 MOL      0.620430
     10 O2         -2.6350    5.5250    2.4280 o         1 MOL     -0.603480
     11 C5         -3.2860    2.4660    2.8640 c3        1 MOL     -0.379785
     12 C6         -4.0740    2.2340    1.5920 c         1 MOL      0.838940
     13 O3         -5.2710    2.4830    1.6660 o         1 MOL     -0.679367
     14 O4         -3.4780    1.8100    0.5810 o         1 MOL     -0.679367
     15 H4         -1.7340    3.0880    4.6990 hn        1 MOL      0.313036
     16 H5         -1.4050    2.6530    1.8350 h1        1 MOL      0.086474
     17 H6         -3.9950    3.1100    3.3860 hc        1 MOL      0.063452
     18 H7         -3.1510    1.5170    3.3750 hc        1 MOL      0.063452
     19 N2         -2.2230    4.4650    0.5410 n         1 MOL     -0.637892
     20 C7         -2.6480    5.6000   -0.2820 c3        1 MOL      0.508804
     21 C8         -3.6100    5.1750   -1.4010 c         1 MOL      0.273312
     22 O5         -3.9750    5.9790   -2.2500 o         1 MOL     -0.565124
     23 C9         -1.4000    6.3300   -0.6870 c3        1 MOL     -0.337779
     24 H8         -1.8260    3.6440    0.1210 hn        1 MOL      0.394637
     25 H9         -3.2360    6.2520    0.3720 h1        1 MOL     -0.002087
     26 H10        -1.8000    7.2700   -1.0670 hc        1 MOL      0.070117
     27 H11        -0.8230    6.5590    0.2110 hc        1 MOL      0.070117
     28 H12        -0.8450    5.7840   -1.4430 hc        1 MOL      0.070117
     29 N3         -4.0210    3.9190   -1.4640 n         1 MOL     -0.098889
     30 C10        -4.9570    3.3860   -2.4740 c3        1 MOL      0.268816
     31 C11        -6.2850    2.7160   -1.9520 c         1 MOL      0.254498
     32 O6         -7.2790    2.8480   -2.6160 o         1 MOL     -0.535658
     33 C12        -4.1700    2.5260   -3.4780 c3        1 MOL     -0.323797
     34 C13        -3.4560    1.4190   -2.7920 c         1 MOL      0.794331
     35 O7         -2.2680    1.2210   -2.9310 o         1 MOL     -0.752076
     36 O8         -3.9940    0.7000   -1.9740 o         1 MOL     -0.752076
     37 H13        -3.7580    3.2070   -0.8000 hn        1 MOL      0.007604
     38 H14        -5.3130    4.2500   -3.0340 h1        1 MOL      0.023094
     39 H15        -3.4490    3.1680   -3.9780 hc        1 MOL      0.072971
     40 H16        -4.9070    2.1370   -4.1830 hc        1 MOL      0.072971
     41 N4         -6.2470    1.9270   -0.8780 n         1 MOL     -0.066148
     42 C14        -7.3980    1.1460   -0.3510 c3        1 MOL     -0.158559
     43 C15        -7.4550   -0.2940   -0.8910 c         1 MOL      0.533811
     44 O9         -8.4410   -0.9210   -0.6080 o         1 MOL     -0.627451
     45 H17        -5.4250    1.9340   -0.2990 hn        1 MOL      0.109759
     46 H18        -8.3490    1.5930   -0.6380 h1        1 MOL      0.096281
     47 H19        -7.4100    1.0900    0.7420 h1        1 MOL      0.096281
     48 N5         -6.3850   -0.8150   -1.4380 n         1 MOL     -0.266758
     49 C16        -6.3520   -2.1370   -2.0030 c3        1 MOL     -0.023656
     50 C17        -6.1480   -3.2570   -0.9480 c         1 MOL      0.415399
     51 O10        -5.9760   -4.4370   -1.2930 o         1 MOL     -0.517956
     52 C18        -5.1900   -2.2500   -3.0060 c3        1 MOL     -0.147954
     53 C19        -3.7800   -2.2990   -2.5240 c         1 MOL      0.549626
     54 N6         -2.8470   -2.4020   -3.4150 n         1 MOL     -0.570894
     55 O11        -3.4830   -2.3840   -1.2970 o         1 MOL     -0.527562
     56 H20        -5.5740   -0.2100   -1.5420 hn        1 MOL      0.253945
     57 H21        -7.2760   -2.3520   -2.5410 h1        1 MOL      0.115040
     58 H22        -5.3120   -1.4990   -3.7980 hc        1 MOL      0.051842
     59 H23        -5.3060   -3.2240   -3.4670 hc        1 MOL      0.051842
     60 H24        -3.0990   -2.3820   -4.3890 hn        1 MOL      0.322771
     61 H25        -1.9010   -2.5380   -3.0930 hn        1 MOL      0.322771
     62 N7         -6.1240   -2.9780    0.3470 n         1 MOL     -0.248176
     63 C20        -6.1300   -4.0020    1.3920 c3        1 MOL     -0.130847
     64 C21        -4.7560   -4.5160    1.9240 c         1 MOL      0.482442
     65 O12        -4.6930   -5.4520    2.7440 o         1 MOL     -0.549536
     66 H26        -6.3470   -2.0380    0.6580 hn        1 MOL      0.277065
     67 H27        -6.6980   -4.9060    1.1900 h1        1 MOL      0.092607
     68 H28        -6.6550   -3.6170    2.2620 h1        1 MOL      0.092607
     69 N8         -3.6710   -3.8970    1.4300 n         1 MOL     -0.317193
     70 C22        -2.3500   -4.4330    1.4920 c3        1 MOL     -0.109970
     71 C23        -1.2870   -3.3370    1.5060 c         1 MOL      0.502587
     72 O13        -1.2830   -2.4210    0.6830 o         1 MOL     -0.517741
     73 C24        -2.0270   -5.4160    0.3570 c3        1 MOL      0.429282
     74 C25        -2.7970   -6.7500    0.4620 c3        1 MOL     -0.628138
     75 O14        -2.2940   -4.9050   -0.8980 oh        1 MOL     -0.525690
     76 H29        -3.8120   -3.2810    0.6340 hn        1 MOL      0.250710
     77 H30        -2.2840   -5.0030    2.4250 h1        1 MOL      0.088036
     78 H31        -0.9560   -5.5960    0.3550 h1        1 MOL     -0.007651
     79 H32        -2.1490   -3.9590   -0.8560 ho        1 MOL      0.312585
     80 H33        -2.9480   -7.1220    1.4750 hc        1 MOL      0.170609
     81 H34        -3.7870   -6.4540    0.1230 hc        1 MOL      0.170609
     82 H35        -2.4300   -7.5100   -0.2400 hc        1 MOL      0.170609
     83 N9         -0.1320   -3.5800    2.1600 n         1 MOL     -0.630836
     84 C26         1.0180   -2.6880    2.1190 c3        1 MOL      0.146619
     85 C27         1.7480   -3.0570    0.8770 c         1 MOL      0.710034
     86 O15         2.4550   -4.0770    0.8580 o         1 MOL     -0.624749
     87 C28         1.9040   -2.6300    3.4320 c3        1 MOL      0.079641
     88 C29         0.9620   -2.3790    4.7060 c3        1 MOL      0.272752
     89 C30         2.8740   -1.4570    3.2990 c3        1 MOL     -0.385053
     90 C31         1.7480   -2.3840    5.9900 c3        1 MOL     -0.331835
     91 H36        -0.2000   -4.4220    2.7110 hn        1 MOL      0.300721
     92 H37         0.6500   -1.6740    2.0090 h1        1 MOL      0.090459
     93 H38         2.4750   -3.5600    3.4610 hc        1 MOL     -0.011035
     94 H39         0.3140   -3.2440    4.8020 hc        1 MOL     -0.059065
     95 H40         0.3210   -1.5310    4.4830 hc        1 MOL     -0.059065
     96 H41         2.3640   -0.4990    3.1340 hc        1 MOL      0.082965
     97 H42         3.5400   -1.3150    4.1450 hc        1 MOL      0.082965
     98 H43         3.4460   -1.6310    2.3910 hc        1 MOL      0.082965
     99 H44         2.4810   -1.5870    6.0750 hc        1 MOL      0.070669
    100 H45         1.0050   -2.4480    6.7880 hc        1 MOL      0.070669
    101 H46         2.3580   -3.2870    5.9600 hc        1 MOL      0.070669
    102 N10         1.7480   -2.1580   -0.1600 n         1 MOL     -0.487699
    103 C32         2.7220   -2.0880   -1.2640 c3        1 MOL      0.249074
    104 C33         4.0610   -1.5050   -0.8240 c         1 MOL      0.301917
    105 O16         4.1180   -0.6480    0.0390 o         1 MOL     -0.121510
    106 C34         2.1100   -1.3330   -2.3940 c3        1 MOL     -0.277297
    107 C35         0.6040   -1.5540   -2.6760 c         1 MOL      0.704025
    108 O17         0.2060   -2.3160   -3.5940 o         1 MOL     -0.674360
    109 O18        -0.2470   -1.0330   -1.9430 o         1 MOL     -0.674360
    110 H47         1.1340   -1.3550   -0.1750 hn        1 MOL      0.230190
    111 H48         2.9010   -3.0780   -1.6870 h1        1 MOL      0.027108
    112 H49         2.6760   -1.6280   -3.2810 hc        1 MOL      0.061579
    113 H50         2.2520   -0.2850   -2.1190 hc        1 MOL      0.061579
    114 N11         5.1840   -2.0170   -1.4320 n         1 MOL     -0.653592
    115 C36         6.5210   -1.4690   -1.3720 c3        1 MOL      0.405029
    116 C37         6.6730    0.0460   -1.0880 c         1 MOL      0.351017
    117 O19         7.1390    0.3720   -0.0050 o         1 MOL     -0.500087
    118 C38         7.4910   -1.9690   -2.4920 c3        1 MOL     -0.322440
    119 C39         8.8940   -1.6440   -2.0730 ca        1 MOL      0.169732
    120 C40         9.6400   -0.6410   -2.7590 ca        1 MOL     -0.205499
    121 C41         9.4790   -2.3670   -1.0390 ca        1 MOL     -0.205499
    122 C42        10.9280   -0.3730   -2.3410 ca        1 MOL     -0.079723
    123 C43        10.7960   -2.1270   -0.6620 ca        1 MOL     -0.079723
    124 C44        11.5340   -1.1480   -1.2860 ca        1 MOL     -0.156109
    125 H51         5.0890   -2.7000   -2.1660 hn        1 MOL      0.341972
    126 H52         7.0190   -1.8470   -0.4790 h1        1 MOL      0.014497
    127 H53         7.3220   -1.4300   -3.4260 hc        1 MOL      0.089241
    128 H54         7.3580   -3.0410   -2.6600 hc        1 MOL      0.089241
    129 H55         9.1520   -0.1070   -3.5590 ha        1 MOL      0.129215
    130 H56         8.9460   -3.1460   -0.5230 ha        1 MOL      0.129215
    131 H57        11.3670    0.4840   -2.8240 ha        1 MOL      0.107944
    132 H58        11.1540   -2.6620    0.2070 ha        1 MOL      0.107944
    133 H59        12.5200   -0.8920   -0.9110 ha        1 MOL      0.111728
    134 N12         6.1510    0.9820   -1.9640 n         1 MOL     -0.077511
    135 C45         6.2050    2.4360   -1.6780 c3        1 MOL     -0.078314
    136 C46         5.5010    2.8130   -0.3540 c         1 MOL      0.422176
    137 O20         5.8090    3.9300    0.0420 o         1 MOL     -0.525158
    138 C47         5.5680    3.0070   -2.9300 c3        1 MOL     -0.044145
    139 C48         4.8070    1.9280   -3.6140 c3        1 MOL      0.056925
    140 C49         5.4680    0.6220   -3.1750 c3        1 MOL     -0.081517
    141 H60         7.2540    2.6880   -1.4930 h1        1 MOL      0.088646
    142 H61         4.9550    3.9000   -2.8050 hc        1 MOL      0.040543
    143 H62         6.4080    3.3390   -3.5500 hc        1 MOL      0.040543
    144 H63         3.7480    1.9240   -3.3620 hc        1 MOL      0.013963
    145 H64         4.8850    2.0760   -4.6850 hc        1 MOL      0.013963
    146 H65         4.7010   -0.1380   -3.0410 h1        1 MOL      0.022901
    147 H66         6.2740    0.3560   -3.8540 h1        1 MOL      0.022901
    148 N13         4.5200    2.0360    0.2430 n         1 MOL     -0.156009
    149 C50         3.8550    2.3190    1.5200 c3        1 MOL     -0.245859
    150 C51         4.6210    1.6820    2.6760 c         1 MOL      0.530036
    151 O21         4.6360    2.2140    3.7790 o         1 MOL     -0.578758
    152 C52         2.4110    1.8570    1.4680 c3        1 MOL      0.066484
    153 C53         1.4670    2.5330    0.4460 c3        1 MOL     -0.155727
    154 C54         0.2030    1.6850    0.3050 c         1 MOL      0.496250
    155 O22        -0.7290    2.2090   -0.3270 o         1 MOL     -0.699597
    156 O23         0.0380    0.6480    1.0140 o         1 MOL     -0.699597
    157 H67         4.3670    1.1420   -0.2120 hn        1 MOL      0.083512
    158 H68         3.8560    3.4010    1.6170 h1        1 MOL      0.138293
    159 H69         2.0130    2.0670    2.4630 hc        1 MOL      0.049416
    160 H70         2.5450    0.7820    1.3080 hc        1 MOL      0.049416
    161 H71         1.9010    2.6110   -0.5560 hc        1 MOL      0.093703
    162 H72         1.3060    3.5800    0.7050 hc        1 MOL      0.093703
    163 N14         5.3810    0.6210    2.4710 n         1 MOL     -0.119303
    164 C55         6.2800    0.0230    3.4760 c3        1 MOL     -0.169394
    165 H73         6.4140    0.7200    4.3030 h1        1 MOL      0.072372
    166 H74         5.8440   -0.9030    3.8500 h1        1 MOL      0.072372
    167 H75         7.2480   -0.1880    3.0190 h1        1 MOL      0.072372
    168 H76         5.2500    0.0760    1.6310 hn        1 MOL      0.114158
    169 Ca1        -2.0330   -0.0640   -0.5220 Ca        1 MOL      1.727208
    170 O24        -3.6340   -0.9650    1.4680 oh        1 MOL     -0.959172
    171 H77        -4.4660   -0.9400    1.9410 ho        1 MOL      0.433560
    172 H78        -2.9760   -1.0400    2.1520 ho        1 MOL      0.433560
@<TRIPOS>BOND
     1    1    2 1   
     2    1    4 1   
     3    1    5 1   
     4    1    6 1   
     5    2    3 2   
     6    2    7 1   
     7    7    8 1   
     8    7   15 1   
     9    8    9 1   
    10    8   11 1   
    11    8   16 1   
    12    9   10 2   
    13    9   19 1   
    14   11   12 1   
    15   11   17 1   
    16   11   18 1   
    17   12   13 1   
    18   12   14 1   
    19   19   20 1   
    20   19   24 1   
    21   20   21 1   
    22   20   23 1   
    23   20   25 1   
    24   21   22 2   
    25   21   29 1   
    26   23   26 1   
    27   23   27 1   
    28   23   28 1   
    29   29   30 1   
    30   29   37 1   
    31   30   31 1   
    32   30   33 1   
    33   30   38 1   
    34   31   32 2   
    35   31   41 1   
    36   33   34 1   
    37   33   39 1   
    38   33   40 1   
    39   34   35 1   
    40   34   36 1   
    41   41   42 1   
    42   41   45 1   
    43   42   43 1   
    44   42   46 1   
    45   42   47 1   
    46   43   44 2   
    47   43   48 1   
    48   48   49 1   
    49   48   56 1   
    50   49   50 1   
    51   49   52 1   
    52   49   57 1   
    53   50   51 2   
    54   50   62 1   
    55   52   53 1   
    56   52   58 1   
    57   52   59 1   
    58   53   54 1   
    59   53   55 2   
    60   54   60 1   
    61   54   61 1   
    62   62   63 1   
    63   62   66 1   
    64   63   64 1   
    65   63   67 1   
    66   63   68 1   
    67   64   65 2   
    68   64   69 1   
    69   69   70 1   
    70   69   76 1   
    71   70   71 1   
    72   70   73 1   
    73   70   77 1   
    74   71   72 2   
    75   71   83 1   
    76   73   74 1   
    77   73   75 1   
    78   73   78 1   
    79   74   80 1   
    80   74   81 1   
    81   74   82 1   
    82   75   79 1   
    83   83   84 1   
    84   83   91 1   
    85   84   85 1   
    86   84   87 1   
    87   84   92 1   
    88   85   86 2   
    89   85  102 1   
    90   87   88 1   
    91   87   89 1   
    92   87   93 1   
    93   88   90 1   
    94   88   94 1   
    95   88   95 1   
    96   89   96 1   
    97   89   97 1   
    98   89   98 1   
    99   90   99 1   
   100   90  100 1   
   101   90  101 1   
   102  102  103 1   
   103  102  110 1   
   104  103  104 1   
   105  103  106 1   
   106  103  111 1   
   107  104  105 2   
   108  104  114 1   
   109  106  107 1   
   110  106  112 1   
   111  106  113 1   
   112  107  108 1   
   113  107  109 1   
   114  114  115 1   
   115  114  125 1   
   116  115  116 1   
   117  115  118 1   
   118  115  126 1   
   119  116  117 2   
   120  116  134 1   
   121  118  119 1   
   122  118  127 1   
   123  118  128 1   
   124  119  120 ar  
   125  119  121 ar  
   126  120  122 ar  
   127  120  129 1   
   128  121  123 ar  
   129  121  130 1   
   130  122  124 ar  
   131  122  131 1   
   132  123  124 ar  
   133  123  132 1   
   134  124  133 1   
   135  134  135 1   
   136  134  140 1   
   137  135  136 1   
   138  135  138 1   
   139  135  141 1   
   140  136  137 2   
   141  136  148 1   
   142  138  139 1   
   143  138  142 1   
   144  138  143 1   
   145  139  140 1   
   146  139  144 1   
   147  139  145 1   
   148  140  146 1   
   149  140  147 1   
   150  148  149 1   
   151  148  157 1   
   152  149  150 1   
   153  149  152 1   
   154  149  158 1   
   155  150  151 2   
   156  150  163 1   
   157  152  153 1   
   158  152  159 1   
   159  152  160 1   
   160  153  154 1   
   161  153  161 1   
   162  153  162 1   
   163  154  155 1   
   164  154  156 1   
   165  163  164 1   
   166  163  168 1   
   167  164  165 1   
   168  164  166 1   
   169  164  167 1   
   170  170  171 1   
   171  170  172 1   
@<TRIPOS>SUBSTRUCTURE
     1 MOL         1 TEMP              0 ****  ****    0 ROOT
