@<TRIPOS>MOLECULE
MOL
  189   185     1     0     0
SMALL
resp


@<TRIPOS>ATOM
      1 C1          0.2580    1.5900    6.1610 c3        1 MOL     -0.328332
      2 C2         -0.1850    1.3140    4.7070 c         1 MOL      0.754310
      3 O1          0.4910    1.7410    3.7890 o         1 MOL     -0.631601
      4 H1          0.9770    2.4100    6.1730 hc        1 MOL      0.086869
      5 H2         -0.6100    1.8620    6.7610 hc        1 MOL      0.086869
      6 H3          0.7230    0.6950    6.5770 hc        1 MOL      0.086869
      7 N1         -1.3200    0.6910    4.4010 n         1 MOL     -0.566213
      8 C3         -2.0040    0.8230    3.1560 c3        1 MOL      0.071371
      9 C4         -2.5470    2.2390    3.0380 c         1 MOL      0.517626
     10 O2         -3.2760    2.6810    3.9170 o         1 MOL     -0.572391
     11 C5         -3.1300   -0.2610    3.0110 c3        1 MOL     -0.077677
     12 C6         -3.9190    0.0630    1.7320 c         1 MOL      0.596949
     13 O3         -3.3350    0.4260    0.6530 o         1 MOL     -0.661908
     14 O4         -5.1830    0.1080    1.8380 o         1 MOL     -0.661908
     15 H4         -1.8440    0.2490    5.1500 hn        1 MOL      0.311414
     16 H5         -1.3240    0.7510    2.3060 h1        1 MOL     -0.008398
     17 H6         -3.7090   -0.2580    3.9370 hc        1 MOL      0.034165
     18 H7         -2.7850   -1.2920    3.0810 hc        1 MOL      0.034165
     19 N2         -2.0400    2.9950    2.0630 n         1 MOL     -0.074963
     20 C7         -2.4110    4.4250    1.9360 c3        1 MOL     -0.124514
     21 C8         -3.3020    4.7460    0.6870 c         1 MOL      0.530512
     22 O5         -3.4610    5.9350    0.3540 o         1 MOL     -0.560966
     23 C9         -1.1570    5.3290    1.9990 c3        1 MOL      0.026655
     24 C10         0.0930    5.0990    1.0950 c3        1 MOL     -0.096168
     25 C11        -0.3660    4.7430   -0.3530 c3        1 MOL     -0.127083
     26 C12         0.8120    4.3750   -1.1250 c3        1 MOL      0.071461
     27 N3          0.4890    4.0340   -2.5440 n4        1 MOL     -0.323260
     28 H8         -1.2800    2.5850    1.5460 hn        1 MOL      0.175819
     29 H9         -3.0540    4.8050    2.7330 h1        1 MOL      0.122961
     30 H10        -0.8470    5.1470    3.0260 hc        1 MOL      0.015286
     31 H11        -1.4500    6.3890    2.0340 hc        1 MOL      0.015286
     32 H12         0.5700    4.2530    1.5940 hc        1 MOL      0.052815
     33 H13         0.7640    5.9510    1.1400 hc        1 MOL      0.052815
     34 H14        -0.8170    5.6550   -0.7530 hc        1 MOL      0.075665
     35 H15        -1.0340    3.8800   -0.3520 hc        1 MOL      0.075665
     36 H16         1.3060    3.4640   -0.7590 hx        1 MOL      0.027849
     37 H17         1.5500    5.1680   -1.1520 hx        1 MOL      0.027849
     38 H18        -0.3530    3.4810   -2.5710 hn        1 MOL      0.296044
     39 H19         0.3860    4.8420   -3.1300 hn        1 MOL      0.296044
     40 H20         1.2590    3.5150   -2.9460 hn        1 MOL      0.296044
     41 N4         -3.7780    3.7740   -0.0520 n         1 MOL     -0.509726
     42 C13        -4.7980    3.9880   -1.0940 c3        1 MOL      0.097200
     43 C14        -6.0290    3.0400   -1.1620 c         1 MOL      0.518291
     44 O6         -6.7150    3.0120   -2.1630 o         1 MOL     -0.518859
     45 C15        -4.0150    4.1020   -2.4350 c3        1 MOL     -0.360440
     46 C16        -3.0730    2.9460   -2.6720 c         1 MOL      1.020609
     47 O7         -3.1160    1.8880   -1.9280 o         1 MOL     -0.803600
     48 O8         -2.2790    2.9020   -3.5930 o         1 MOL     -0.803600
     49 H21        -3.5940    2.8200    0.2210 hn        1 MOL      0.214987
     50 H22        -5.2820    4.9490   -0.9000 h1        1 MOL      0.102399
     51 H23        -3.3670    4.9830   -2.3280 hc        1 MOL      0.080369
     52 H24        -4.5960    4.0980   -3.3560 hc        1 MOL      0.080369
     53 N5         -6.3290    2.4700   -0.0030 n         1 MOL     -0.393605
     54 C17        -7.5700    1.8630    0.3090 c3        1 MOL     -0.357144
     55 C18        -7.8070    0.4930   -0.3330 c         1 MOL      0.573838
     56 O9         -8.8200   -0.1550   -0.1760 o         1 MOL     -0.579534
     57 H25        -5.5740    2.5250    0.6740 hn        1 MOL      0.345033
     58 H26        -8.4050    2.4660   -0.0580 h1        1 MOL      0.173106
     59 H27        -7.5660    1.9560    1.3950 h1        1 MOL      0.173106
     60 N6         -6.8220   -0.0130   -1.0890 n         1 MOL     -0.217971
     61 C19        -6.9210   -1.2650   -1.8330 c3        1 MOL     -0.051039
     62 C20        -6.7250   -2.4820   -0.9030 c         1 MOL      0.449860
     63 O10        -6.9420   -3.5990   -1.3680 o         1 MOL     -0.539342
     64 C21        -5.9520   -1.3140   -3.0660 c3        1 MOL     -0.204100
     65 C22        -4.4550   -1.2750   -2.7090 c         1 MOL      0.714581
     66 O11        -4.0730   -1.9670   -1.7020 o         1 MOL     -0.684466
     67 O12        -3.6870   -0.6020   -3.3550 o         1 MOL     -0.684466
     68 H28        -5.9560    0.4960   -1.1580 hn        1 MOL      0.201268
     69 H29        -7.9250   -1.2770   -2.2550 h1        1 MOL      0.118659
     70 H30        -6.2430   -0.4870   -3.7060 hc        1 MOL      0.067331
     71 H31        -6.2170   -2.2530   -3.5450 hc        1 MOL      0.067331
     72 N7         -6.3620   -2.3470    0.3910 n         1 MOL     -0.267540
     73 C23        -6.2290   -3.5150    1.2830 c3        1 MOL     -0.042802
     74 C24        -4.9420   -4.2690    1.1830 c         1 MOL      0.520956
     75 O13        -4.8720   -5.3550    1.6580 o         1 MOL     -0.572728
     76 H32        -6.0480   -1.4570    0.7580 hn        1 MOL      0.266372
     77 H33        -7.0190   -4.2320    1.0980 h1        1 MOL      0.070372
     78 H34        -6.4200   -3.1740    2.2970 h1        1 MOL      0.070372
     79 N8         -3.9330   -3.7150    0.5130 n         1 MOL     -0.091041
     80 C25        -2.6430   -4.4470    0.3020 c3        1 MOL     -0.306034
     81 C26        -1.4960   -3.4700    0.4530 c         1 MOL      0.618525
     82 O14        -1.5090   -2.2070    0.1730 o         1 MOL     -0.733079
     83 C27        -2.4630   -5.2140   -0.9840 c3        1 MOL      0.480323
     84 C28        -3.2450   -6.5760   -1.1200 c3        1 MOL     -0.457689
     85 O15        -2.8410   -4.3570   -2.0900 oh        1 MOL     -0.677616
     86 H35        -4.1010   -2.7610    0.2120 hn        1 MOL      0.069071
     87 H36        -2.5570   -5.1170    1.1600 h1        1 MOL      0.118410
     88 H37        -1.3980   -5.4340   -1.0780 h1        1 MOL      0.006364
     89 H38        -3.4380   -3.6640   -1.7850 ho        1 MOL      0.444922
     90 H39        -2.7270   -7.4430   -0.7000 hc        1 MOL      0.126026
     91 H40        -4.2460   -6.5500   -0.6960 hc        1 MOL      0.126026
     92 H41        -3.3680   -6.7990   -2.1770 hc        1 MOL      0.126026
     93 N9         -0.3100   -3.9320    0.8680 n         1 MOL     -0.418430
     94 C29         0.9340   -3.1510    1.1150 c3        1 MOL      0.054578
     95 C30         1.8210   -3.5000   -0.1000 c         1 MOL      0.460468
     96 O16         2.0060   -4.6550   -0.4380 o         1 MOL     -0.550102
     97 C31         1.5870   -3.5140    2.4510 c3        1 MOL      0.060874
     98 C32         0.5630   -3.0280    3.5130 c3        1 MOL      0.145330
     99 C33         2.9970   -2.9650    2.6120 c3        1 MOL     -0.104783
    100 C34         1.0620   -3.2050    4.9510 c3        1 MOL     -0.113366
    101 H42        -0.3590   -4.9140    1.0970 hn        1 MOL      0.247297
    102 H43         0.6160   -2.1100    1.0340 h1        1 MOL      0.133128
    103 H44         1.6510   -4.6040    2.5200 hc        1 MOL      0.007924
    104 H45        -0.3690   -3.5740    3.4430 hc        1 MOL     -0.026201
    105 H46         0.3320   -1.9770    3.3110 hc        1 MOL     -0.026201
    106 H47         3.6850   -3.3860    1.8770 hc        1 MOL      0.012643
    107 H48         2.9910   -1.8810    2.5110 hc        1 MOL      0.012643
    108 H49         3.4070   -3.3190    3.5580 hc        1 MOL      0.012643
    109 H50         1.1590   -4.2410    5.2700 hc        1 MOL      0.016468
    110 H51         1.9430   -2.5680    5.0380 hc        1 MOL      0.016468
    111 H52         0.2890   -2.6670    5.5000 hc        1 MOL      0.016468
    112 N10         2.3790   -2.4670   -0.7300 n         1 MOL     -0.134496
    113 C35         3.5740   -2.5240   -1.6760 c3        1 MOL     -0.051711
    114 C36         4.8850   -2.5630   -0.9440 c         1 MOL      0.447670
    115 O17         4.9460   -2.1880    0.2300 o         1 MOL     -0.412115
    116 C37         3.5120   -1.2500   -2.5830 c3        1 MOL      0.170152
    117 C38         2.3010   -1.2240   -3.4830 c3        1 MOL     -0.287694
    118 O18         3.3620   -0.1060   -1.7460 oh        1 MOL     -0.659816
    119 H53         2.0800   -1.5410   -0.4650 hn        1 MOL      0.077580
    120 H54         3.5080   -3.4410   -2.2660 h1        1 MOL      0.082656
    121 H55         4.4570   -1.0630   -3.1050 h1        1 MOL      0.038303
    122 H56         2.4780   -0.1820   -1.4040 ho        1 MOL      0.469167
    123 H57         1.3690   -1.5460   -3.0290 hc        1 MOL      0.076737
    124 H58         2.2370   -0.2370   -3.9540 hc        1 MOL      0.076737
    125 H59         2.5670   -1.9400   -4.2580 hc        1 MOL      0.076737
    126 N11         5.9800   -2.7030   -1.7100 n         1 MOL     -0.339084
    127 C39         7.3530   -2.4790   -1.2170 c3        1 MOL     -0.190070
    128 C40         7.6310   -1.0580   -0.6680 c         1 MOL      0.356799
    129 O19         8.5400   -0.9160    0.1280 o         1 MOL     -0.458457
    130 C41         8.4610   -2.9780   -2.1980 c3        1 MOL      0.391769
    131 C42         8.3060   -4.3840   -2.5840 c3        1 MOL     -0.403134
    132 O20         8.3770   -2.2520   -3.4140 oh        1 MOL     -0.656786
    133 H60         5.9020   -3.2300   -2.5770 hn        1 MOL      0.269964
    134 H61         7.4880   -3.0870   -0.3210 h1        1 MOL      0.144747
    135 H62         9.4230   -2.9920   -1.6800 h1        1 MOL      0.034221
    136 H63         9.0780   -2.5360   -3.9980 ho        1 MOL      0.415831
    137 H64         7.8230   -4.9930   -1.8170 hc        1 MOL      0.107128
    138 H65         7.8270   -4.4740   -3.5520 hc        1 MOL      0.107128
    139 H66         9.3170   -4.7840   -2.6990 hc        1 MOL      0.107128
    140 N12         6.8740   -0.0960   -1.1570 n         1 MOL     -0.201395
    141 C43         7.0160    1.2850   -0.6410 c3        1 MOL     -0.092799
    142 C44         6.3260    1.3290    0.6690 c         1 MOL      0.172703
    143 O21         6.8640    1.7400    1.7120 o         1 MOL     -0.486868
    144 C45         6.3750    2.3620   -1.6750 c3        1 MOL     -0.071798
    145 C46         6.2750    3.6710   -0.9960 c3        1 MOL      0.186437
    146 C47         5.7770    4.8320   -1.8270 c3        1 MOL     -0.290071
    147 C48         5.8980    6.1200   -1.1080 c3        1 MOL      0.251220
    148 N13         5.7940    7.3520   -1.9500 n4        1 MOL     -0.509825
    149 H67         6.3870   -0.1980   -2.0350 hn        1 MOL      0.265260
    150 H68         8.0660    1.5200   -0.5060 h1        1 MOL      0.148034
    151 H69         5.3270    2.0930   -1.8080 hc        1 MOL      0.027554
    152 H70         6.8770    2.4160   -2.6410 hc        1 MOL      0.027554
    153 H71         7.2350    3.8660   -0.5350 hc        1 MOL     -0.003553
    154 H72         5.5650    3.6220   -0.1720 hc        1 MOL     -0.003553
    155 H73         4.7350    4.6480   -2.1060 hc        1 MOL      0.070636
    156 H74         6.5140    4.9380   -2.6150 hc        1 MOL      0.070636
    157 H75         6.8370    6.1420   -0.5560 hx        1 MOL      0.048089
    158 H76         5.1850    6.1370   -0.2860 hx        1 MOL      0.048089
    159 H77         6.0850    8.1420   -1.3940 hn        1 MOL      0.365779
    160 H78         6.4390    7.2270   -2.7160 hn        1 MOL      0.365779
    161 H79         4.8750    7.4790   -2.3510 hn        1 MOL      0.365779
    162 N14         5.0810    0.9100    0.7490 n         1 MOL      0.061101
    163 C49         4.3360    0.9030    1.9990 c3        1 MOL     -0.227807
    164 C50         4.9180   -0.0460    2.9920 c         1 MOL      0.491708
    165 O22         4.7410    0.0790    4.1790 o         1 MOL     -0.556664
    166 C51         2.8750    0.4700    1.6140 c3        1 MOL      0.105020
    167 C52         2.2620    1.5960    0.7110 c3        1 MOL     -0.334483
    168 C53         0.9780    1.0520   -0.0340 c         1 MOL      0.839134
    169 O23         1.0650    0.1350   -0.8750 o         1 MOL     -0.743902
    170 O24        -0.1180    1.6500    0.0070 o         1 MOL     -0.743902
    171 H80         4.5990    0.6610   -0.1070 hn        1 MOL      0.249700
    172 H81         4.2550    1.8910    2.4660 h1        1 MOL      0.119741
    173 H82         2.2150    0.2430    2.4530 hc        1 MOL      0.053566
    174 H83         2.9600   -0.4550    1.0480 hc        1 MOL      0.053566
    175 H84         2.9400    2.0050   -0.0430 hc        1 MOL      0.059409
    176 H85         2.0580    2.4560    1.3450 hc        1 MOL      0.059409
    177 N15         5.7200   -1.0150    2.5670 n         1 MOL     -0.013609
    178 C54         6.4260   -1.9030    3.4840 c3        1 MOL     -0.423711
    179 H86         7.0020   -1.3080    4.1930 h1        1 MOL      0.137646
    180 H87         5.7050   -2.5150    4.0260 h1        1 MOL      0.137646
    181 H88         7.0990   -2.5480    2.9210 h1        1 MOL      0.137646
    182 H89         5.7610   -1.1800    1.5690 hn        1 MOL      0.158293
    183 Ca1        -1.9180   -0.1880   -1.3850 Ca        1 MOL      1.785729
    184 O25        -1.3140   -2.3090   -2.8340 oh        1 MOL     -0.848339
    185 H90        -1.1400   -2.4000   -3.7770 ho        1 MOL      0.403285
    186 H91        -1.7850   -3.1080   -2.5960 ho        1 MOL      0.403285
    187 O26        -0.6830    0.5350   -3.7250 oh        1 MOL     -0.848339
    188 H92        -1.3260    1.1720   -4.0430 ho        1 MOL      0.403285
    189 H93        -0.0580    0.4440   -4.4390 ho        1 MOL      0.403285
@<TRIPOS>BOND
     1    1    2 1   
     2    1    4 1   
     3    1    5 1   
     4    1    6 1   
     5    2    3 2   
     6    2    7 1   
     7    7    8 1   
     8    7   15 1   
     9    8    9 1   
    10    8   11 1   
    11    8   16 1   
    12    9   10 2   
    13    9   19 1   
    14   11   12 1   
    15   11   17 1   
    16   11   18 1   
    17   12   13 1   
    18   12   14 1   
    19   19   20 1   
    20   19   28 1   
    21   20   21 1   
    22   20   23 1   
    23   20   29 1   
    24   21   22 2   
    25   21   41 1   
    26   23   24 1   
    27   23   30 1   
    28   23   31 1   
    29   24   25 1   
    30   24   32 1   
    31   24   33 1   
    32   25   26 1   
    33   25   34 1   
    34   25   35 1   
    35   26   27 1   
    36   26   36 1   
    37   26   37 1   
    38   27   38 1   
    39   27   39 1   
    40   27   40 1   
    41   41   42 1   
    42   41   49 1   
    43   42   43 1   
    44   42   45 1   
    45   42   50 1   
    46   43   44 2   
    47   43   53 1   
    48   45   46 1   
    49   45   51 1   
    50   45   52 1   
    51   46   47 1   
    52   46   48 1   
    53   53   54 1   
    54   53   57 1   
    55   54   55 1   
    56   54   58 1   
    57   54   59 1   
    58   55   56 2   
    59   55   60 1   
    60   60   61 1   
    61   60   68 1   
    62   61   62 1   
    63   61   64 1   
    64   61   69 1   
    65   62   63 2   
    66   62   72 1   
    67   64   65 1   
    68   64   70 1   
    69   64   71 1   
    70   65   66 1   
    71   65   67 1   
    72   72   73 1   
    73   72   76 1   
    74   73   74 1   
    75   73   77 1   
    76   73   78 1   
    77   74   75 2   
    78   74   79 1   
    79   79   80 1   
    80   79   86 1   
    81   80   81 1   
    82   80   83 1   
    83   80   87 1   
    84   81   82 2   
    85   81   93 1   
    86   83   84 1   
    87   83   85 1   
    88   83   88 1   
    89   84   90 1   
    90   84   91 1   
    91   84   92 1   
    92   85   89 1   
    93   93   94 1   
    94   93  101 1   
    95   94   95 1   
    96   94   97 1   
    97   94  102 1   
    98   95   96 2   
    99   95  112 1   
   100   97   98 1   
   101   97   99 1   
   102   97  103 1   
   103   98  100 1   
   104   98  104 1   
   105   98  105 1   
   106   99  106 1   
   107   99  107 1   
   108   99  108 1   
   109  100  109 1   
   110  100  110 1   
   111  100  111 1   
   112  112  113 1   
   113  112  119 1   
   114  113  114 1   
   115  113  116 1   
   116  113  120 1   
   117  114  115 2   
   118  114  126 1   
   119  116  117 1   
   120  116  118 1   
   121  116  121 1   
   122  117  123 1   
   123  117  124 1   
   124  117  125 1   
   125  118  122 1   
   126  126  127 1   
   127  126  133 1   
   128  127  128 1   
   129  127  130 1   
   130  127  134 1   
   131  128  129 2   
   132  128  140 1   
   133  130  131 1   
   134  130  132 1   
   135  130  135 1   
   136  131  137 1   
   137  131  138 1   
   138  131  139 1   
   139  132  136 1   
   140  140  141 1   
   141  140  149 1   
   142  141  142 1   
   143  141  144 1   
   144  141  150 1   
   145  142  143 2   
   146  142  162 1   
   147  144  145 1   
   148  144  151 1   
   149  144  152 1   
   150  145  146 1   
   151  145  153 1   
   152  145  154 1   
   153  146  147 1   
   154  146  155 1   
   155  146  156 1   
   156  147  148 1   
   157  147  157 1   
   158  147  158 1   
   159  148  159 1   
   160  148  160 1   
   161  148  161 1   
   162  162  163 1   
   163  162  171 1   
   164  163  164 1   
   165  163  166 1   
   166  163  172 1   
   167  164  165 2   
   168  164  177 1   
   169  166  167 1   
   170  166  173 1   
   171  166  174 1   
   172  167  168 1   
   173  167  175 1   
   174  167  176 1   
   175  168  169 1   
   176  168  170 1   
   177  177  178 1   
   178  177  182 1   
   179  178  179 1   
   180  178  180 1   
   181  178  181 1   
   182  184  185 1   
   183  184  186 1   
   184  187  188 1   
   185  187  189 1   
@<TRIPOS>SUBSTRUCTURE
     1 MOL         1 TEMP              0 ****  ****    0 ROOT
