@<TRIPOS>MOLECULE
MOL
  189   185     1     0     0
SMALL
resp


@<TRIPOS>ATOM
      1 C1          1.5260   -2.8140    6.3500 c3        1 MOL     -0.321334
      2 C2          1.6950   -2.5710    4.8300 c         1 MOL      0.760862
      3 O1          1.4480   -1.4550    4.3350 o         1 MOL     -0.609637
      4 H1          2.4800   -3.1220    6.7760 hc        1 MOL      0.078732
      5 H2          1.1940   -1.8940    6.8300 hc        1 MOL      0.078732
      6 H3          0.7860   -3.5970    6.5120 hc        1 MOL      0.078732
      7 N1          2.2760   -3.5400    4.0930 n         1 MOL     -0.636001
      8 C3          2.8240   -3.3930    2.7470 c3        1 MOL      0.150052
      9 C4          2.7680   -4.6710    1.9230 c         1 MOL      0.502298
     10 O2          2.8960   -5.7700    2.5100 o         1 MOL     -0.588948
     11 C5          4.3030   -2.8620    2.8400 c3        1 MOL     -0.040706
     12 C6          4.7990   -2.4300    1.4360 c         1 MOL      0.546830
     13 O3          3.9600   -1.9020    0.6110 o         1 MOL     -0.607817
     14 O4          6.0240   -2.4870    1.2440 o         1 MOL     -0.607817
     15 H4          2.5310   -4.3860    4.5740 hn        1 MOL      0.319935
     16 H5          2.3130   -2.5960    2.2130 h1        1 MOL      0.096504
     17 H6          5.0080   -3.6120    3.1900 hc        1 MOL     -0.014775
     18 H7          4.3820   -1.9860    3.4910 hc        1 MOL     -0.014775
     19 N2          2.5120   -4.5290    0.5760 n         1 MOL     -0.112594
     20 C7          2.5270   -5.5360   -0.4480 c3        1 MOL      0.009919
     21 C8          3.6460   -5.2140   -1.5290 c         1 MOL      0.451377
     22 O5          4.3750   -6.0930   -1.9580 o         1 MOL     -0.572688
     23 C9          1.0830   -5.5530   -1.0600 c3        1 MOL      0.326781
     24 C10         0.0150   -6.0020   -0.0330 c3        1 MOL      0.015301
     25 C11         1.1450   -6.4680   -2.2450 c3        1 MOL     -0.403157
     26 C12         0.1020   -7.4130    0.5730 c3        1 MOL     -0.138682
     27 H8          2.2020   -3.6240    0.2340 hn        1 MOL     -0.067498
     28 H9          2.8630   -6.4830   -0.0270 h1        1 MOL      0.041372
     29 H10         0.8230   -4.5520   -1.4020 hc        1 MOL     -0.005114
     30 H11        -0.9580   -5.8640   -0.5000 hc        1 MOL     -0.002460
     31 H12         0.0260   -5.3420    0.8310 hc        1 MOL     -0.002460
     32 H13         1.5960   -5.8740   -3.0400 hc        1 MOL      0.079606
     33 H14         1.6270   -7.4090   -1.9740 hc        1 MOL      0.079606
     34 H15         0.1120   -6.5910   -2.5620 hc        1 MOL      0.079606
     35 H16        -0.0230   -8.0650   -0.2890 hc        1 MOL      0.022449
     36 H17         1.1130   -7.6380    0.9170 hc        1 MOL      0.022449
     37 H18        -0.5190   -7.6640    1.4350 hc        1 MOL      0.022449
     38 N3          3.8910   -3.9250   -1.8560 n         1 MOL     -0.243848
     39 C13         4.4760   -3.4960   -3.1120 c3        1 MOL      0.028632
     40 C14         5.6570   -2.4420   -2.9600 c         1 MOL      0.378249
     41 O6          6.3000   -2.0800   -3.8940 o         1 MOL     -0.542705
     42 C15         3.4220   -2.8760   -4.0090 c3        1 MOL     -0.139825
     43 C16         2.6750   -1.6560   -3.4500 c         1 MOL      0.759939
     44 O7          2.9970   -1.1760   -2.3520 o         1 MOL     -0.730190
     45 O8          1.7890   -1.0100   -4.0720 o         1 MOL     -0.730190
     46 H19         3.4720   -3.2140   -1.2730 hn        1 MOL      0.233397
     47 H20         4.8760   -4.3410   -3.6750 h1        1 MOL      0.087667
     48 H21         2.6040   -3.5530   -4.2520 hc        1 MOL      0.027869
     49 H22         3.9910   -2.7090   -4.9200 hc        1 MOL      0.027869
     50 N4          5.9200   -1.9070   -1.7630 n         1 MOL     -0.046196
     51 C17         7.0900   -1.1250   -1.4570 c3        1 MOL     -0.164035
     52 C18         6.9770    0.2900   -2.0040 c         1 MOL      0.482529
     53 O9          7.9520    0.9560   -1.9810 o         1 MOL     -0.565920
     54 H23         5.3230   -2.2180   -1.0030 hn        1 MOL      0.002741
     55 H24         7.9290   -1.6860   -1.8690 h1        1 MOL      0.096196
     56 H25         7.3090   -1.0900   -0.3840 h1        1 MOL      0.096196
     57 N5          5.7780    0.8130   -2.4560 n         1 MOL     -0.328942
     58 C19         5.7960    2.0370   -3.1550 c3        1 MOL      0.321506
     59 C20         6.2230    3.2120   -2.2690 c         1 MOL      0.344534
     60 O10         6.7530    4.1780   -2.7540 o         1 MOL     -0.579278
     61 C21         4.3390    2.4050   -3.6650 c3        1 MOL     -0.544589
     62 C22         3.1910    2.4270   -2.6960 c         1 MOL      0.944830
     63 O11         3.3260    2.0480   -1.5030 o         1 MOL     -0.753585
     64 O12         2.0850    2.8730   -3.0440 o         1 MOL     -0.753585
     65 H26         5.0300    0.1450   -2.5820 hn        1 MOL      0.219181
     66 H27         6.4360    2.0550   -4.0400 h1        1 MOL      0.015221
     67 H28         3.9980    1.6610   -4.3980 hc        1 MOL      0.123910
     68 H29         4.3690    3.4170   -4.0650 hc        1 MOL      0.123910
     69 N6          6.0610    3.1730   -0.9270 n         1 MOL      0.017295
     70 C23         6.5710    4.0500    0.1780 c3        1 MOL     -0.290787
     71 C24         5.3710    4.4760    1.1180 c         1 MOL      0.537700
     72 O13         5.5610    5.1840    2.1390 o         1 MOL     -0.597668
     73 H30         5.5840    2.3170   -0.6630 hn        1 MOL      0.104594
     74 H31         7.1070    4.9300   -0.1910 h1        1 MOL      0.130103
     75 H32         7.1940    3.4030    0.7900 h1        1 MOL      0.130103
     76 N7          4.0890    4.2560    0.7060 n         1 MOL     -0.286345
     77 C25         2.8570    4.6790    1.4020 c3        1 MOL      0.352731
     78 C26         1.8640    3.5000    1.7580 c         1 MOL      0.258151
     79 O14         1.9400    2.4020    1.1760 o         1 MOL     -0.505801
     80 C27         2.0180    5.6680    0.5930 c3        1 MOL     -0.069049
     81 C28         2.7020    6.9370    0.0680 c3        1 MOL     -0.469118
     82 C29         1.6300    7.9390   -0.2450 c         1 MOL      0.730098
     83 N8          1.0530    7.9250   -1.4450 n         1 MOL     -0.838071
     84 O15         1.1640    8.7030    0.5590 o         1 MOL     -0.571243
     85 H33         3.9490    3.6580   -0.0940 hn        1 MOL      0.095559
     86 H34         3.0810    5.0740    2.3860 h1        1 MOL     -0.030907
     87 H35         1.2710    6.0320    1.3020 hc        1 MOL      0.072903
     88 H36         1.5890    5.0320   -0.1800 hc        1 MOL      0.072903
     89 H37         3.3220    6.7790   -0.8190 hc        1 MOL      0.141199
     90 H38         3.2080    7.3620    0.9350 hc        1 MOL      0.141199
     91 H39         1.5130    7.3020   -2.1000 hn        1 MOL      0.371484
     92 H40         0.2560    8.4390   -1.7760 hn        1 MOL      0.371484
     93 N9          0.9540    3.6190    2.7010 n         1 MOL     -0.326499
     94 C30        -0.0720    2.6220    2.9260 c3        1 MOL      0.165477
     95 C31        -1.2900    2.9960    2.1630 c         1 MOL      0.286961
     96 O16        -1.8330    4.1120    2.3390 o         1 MOL     -0.553499
     97 C32        -0.3710    2.5580    4.4570 c3        1 MOL      0.200925
     98 C33        -1.5210    1.6390    4.8170 c3        1 MOL     -0.259664
     99 C34         0.8320    2.0000    5.2280 c3        1 MOL     -0.259664
    100 H41         0.7940    4.4870    3.2030 hn        1 MOL      0.243684
    101 H42         0.2130    1.6270    2.6070 h1        1 MOL      0.076047
    102 H43        -0.5990    3.5900    4.7020 hc        1 MOL     -0.023790
    103 H44        -1.8430    1.8170    5.8380 hc        1 MOL      0.050683
    104 H45        -2.3610    1.9830    4.2120 hc        1 MOL      0.050683
    105 H46        -1.3310    0.5890    4.5780 hc        1 MOL      0.050683
    106 H47         1.7580    2.4900    4.9450 hc        1 MOL      0.050683
    107 H48         0.7370    2.1350    6.3140 hc        1 MOL      0.050683
    108 H49         0.9250    0.9330    5.0310 hc        1 MOL      0.050683
    109 N10        -1.6230    2.1780    1.1350 n         1 MOL      0.012049
    110 C35        -2.8440    2.2070    0.3410 c3        1 MOL     -0.031225
    111 C36        -4.1300    1.7140    1.0780 c         1 MOL      0.426795
    112 O17        -4.1320    0.7400    1.8440 o         1 MOL     -0.506711
    113 C37        -2.5830    1.4880   -1.0290 c3        1 MOL     -0.409638
    114 C38        -3.7950    1.6290   -1.9260 c         1 MOL      0.810665
    115 N11        -3.8630    2.6730   -2.7130 n         1 MOL     -0.863370
    116 O18        -4.6540    0.7870   -1.8800 o         1 MOL     -0.536994
    117 H50        -0.9850    1.4070    1.0160 hn        1 MOL      0.064322
    118 H51        -3.0160    3.2700    0.1400 h1        1 MOL      0.027322
    119 H52        -2.4670    0.4020   -0.9540 hc        1 MOL      0.146718
    120 H53        -1.7620    1.8990   -1.6150 hc        1 MOL      0.146718
    121 H54        -3.0430    3.2580   -2.7060 hn        1 MOL      0.385062
    122 H55        -4.7290    2.8890   -3.1970 hn        1 MOL      0.385062
    123 N12        -5.2260    2.4060    0.7550 n         1 MOL     -0.168212
    124 C39        -6.4730    2.1290    1.3980 c3        1 MOL      0.091887
    125 C40        -6.9500    0.6780    1.1950 c         1 MOL      0.320444
    126 O19        -7.6620    0.0710    2.0490 o         1 MOL     -0.546855
    127 C41        -7.5990    3.0450    0.8350 c3        1 MOL     -0.330005
    128 C42        -8.0970    2.7020   -0.5300 ca        1 MOL      0.055519
    129 C43        -9.1720    1.8050   -0.7050 ca        1 MOL     -0.123867
    130 C44        -7.5360    3.2960   -1.6770 ca        1 MOL     -0.123867
    131 C45        -9.5910    1.5040   -2.0500 ca        1 MOL     -0.380113
    132 C46        -8.0260    3.1580   -2.9280 ca        1 MOL     -0.380113
    133 C47        -9.0730    2.2070   -3.1650 ca        1 MOL      0.485774
    134 O20        -9.6300    2.0510   -4.4020 oh        1 MOL     -0.537363
    135 H56        -5.2070    3.2890    0.2670 hn        1 MOL      0.174327
    136 H57        -6.3650    2.4510    2.4400 h1        1 MOL      0.057039
    137 H58        -7.1230    4.0330    0.8390 hc        1 MOL      0.111092
    138 H59        -8.4110    2.9310    1.5400 hc        1 MOL      0.111092
    139 H60        -9.6740    1.4850    0.1930 ha        1 MOL      0.134749
    140 H61        -6.7480    4.0130   -1.4650 ha        1 MOL      0.134749
    141 H62       -10.4300    0.8500   -2.1730 ha        1 MOL      0.172806
    142 H63        -7.5170    3.6570   -3.7440 ha        1 MOL      0.172806
    143 H64       -10.3630    1.4220   -4.3840 ho        1 MOL      0.387751
    144 N13        -6.5270    0.0460    0.0540 n         1 MOL      0.099215
    145 C48        -6.8400   -1.3700   -0.2150 c3        1 MOL     -0.132805
    146 C49        -5.7810   -2.3280    0.4310 c         1 MOL      0.290643
    147 O21        -6.0840   -3.4160    0.9960 o         1 MOL     -0.495929
    148 C50        -6.9940   -1.7200   -1.7440 c3        1 MOL      0.043547
    149 C51        -7.3400   -3.1790   -2.0890 c3        1 MOL     -0.305806
    150 C52        -7.0340   -3.4910   -3.5310 c         1 MOL      0.723201
    151 O22        -5.8790   -3.2920   -3.9640 o         1 MOL     -0.740342
    152 O23        -7.9450   -4.0380   -4.2350 o         1 MOL     -0.740342
    153 H65        -5.9630    0.5930   -0.5840 hn        1 MOL      0.062834
    154 H66        -7.7430   -1.7200    0.2990 h1        1 MOL      0.088458
    155 H67        -5.9800   -1.5650   -2.1210 hc        1 MOL      0.025460
    156 H68        -7.5710   -0.9670   -2.2860 hc        1 MOL      0.025460
    157 H69        -8.3900   -3.2750   -1.8220 hc        1 MOL      0.058203
    158 H70        -6.8670   -3.8360   -1.3690 hc        1 MOL      0.058203
    159 N14        -4.4810   -1.9250    0.2920 n         1 MOL     -0.011152
    160 C53        -3.4130   -2.6400    0.8830 c3        1 MOL     -0.288376
    161 C54        -3.5520   -2.8690    2.3860 c         1 MOL      0.489905
    162 O24        -3.2330   -3.9510    2.9180 o         1 MOL     -0.569423
    163 C55        -2.1650   -1.7950    0.5750 c3        1 MOL      0.241182
    164 C56        -0.9110   -2.3360    1.2410 c3        1 MOL     -0.281917
    165 C57         0.2940   -1.4630    0.7510 c         1 MOL      0.558812
    166 O25         0.3290   -0.2330    1.0280 o         1 MOL     -0.585856
    167 O26         1.2000   -2.0460    0.0620 o         1 MOL     -0.585856
    168 H71        -4.2800   -1.0440   -0.1630 hn        1 MOL      0.076161
    169 H72        -3.3770   -3.6130    0.4060 h1        1 MOL      0.161062
    170 H73        -2.3500   -0.7920    0.9830 hc        1 MOL      0.008014
    171 H74        -1.9590   -1.6630   -0.4860 hc        1 MOL      0.008014
    172 H75        -0.7760   -3.3680    0.8980 hc        1 MOL      0.065434
    173 H76        -0.9050   -2.2730    2.3300 hc        1 MOL      0.065434
    174 N15        -4.2090   -1.9410    3.0640 n         1 MOL     -0.063947
    175 C58        -4.4680   -2.0230    4.5070 c3        1 MOL     -0.250544
    176 H77        -5.4640   -1.6370    4.7190 h1        1 MOL      0.090183
    177 H78        -4.4050   -3.0630    4.8290 h1        1 MOL      0.090183
    178 H79        -3.7270   -1.4310    5.0430 h1        1 MOL      0.090183
    179 H80        -4.4770   -1.1060    2.5510 hn        1 MOL      0.191354
    180 Ca1         2.6790    0.1280   -0.0080 Ca        1 MOL      1.671215
    181 O27         3.1390    0.2220    2.7250 oh        1 MOL     -0.807987
    182 H81         2.5880   -0.3810    3.2200 ho        1 MOL      0.397712
    183 H82         3.7470    0.5750    3.3740 ho        1 MOL      0.397712
    184 O28         5.4930    0.5050    0.7290 oh        1 MOL     -0.807987
    185 H83         5.8250    0.7800    1.5750 ho        1 MOL      0.397712
    186 H84         5.6940   -0.4310    0.6790 ho        1 MOL      0.397712
    187 O29         0.6330    0.8140   -1.8800 oh        1 MOL     -0.807987
    188 H85         0.9200    0.1740   -2.5300 ho        1 MOL      0.397712
    189 H86         0.9360    1.6520   -2.2190 ho        1 MOL      0.397712
@<TRIPOS>BOND
     1    1    2 1   
     2    1    4 1   
     3    1    5 1   
     4    1    6 1   
     5    2    3 2   
     6    2    7 1   
     7    7    8 1   
     8    7   15 1   
     9    8    9 1   
    10    8   11 1   
    11    8   16 1   
    12    9   10 2   
    13    9   19 1   
    14   11   12 1   
    15   11   17 1   
    16   11   18 1   
    17   12   13 1   
    18   12   14 1   
    19   19   20 1   
    20   19   27 1   
    21   20   21 1   
    22   20   23 1   
    23   20   28 1   
    24   21   22 2   
    25   21   38 1   
    26   23   24 1   
    27   23   25 1   
    28   23   29 1   
    29   24   26 1   
    30   24   30 1   
    31   24   31 1   
    32   25   32 1   
    33   25   33 1   
    34   25   34 1   
    35   26   35 1   
    36   26   36 1   
    37   26   37 1   
    38   38   39 1   
    39   38   46 1   
    40   39   40 1   
    41   39   42 1   
    42   39   47 1   
    43   40   41 2   
    44   40   50 1   
    45   42   43 1   
    46   42   48 1   
    47   42   49 1   
    48   43   44 1   
    49   43   45 1   
    50   50   51 1   
    51   50   54 1   
    52   51   52 1   
    53   51   55 1   
    54   51   56 1   
    55   52   53 2   
    56   52   57 1   
    57   57   58 1   
    58   57   65 1   
    59   58   59 1   
    60   58   61 1   
    61   58   66 1   
    62   59   60 2   
    63   59   69 1   
    64   61   62 1   
    65   61   67 1   
    66   61   68 1   
    67   62   63 1   
    68   62   64 1   
    69   69   70 1   
    70   69   73 1   
    71   70   71 1   
    72   70   74 1   
    73   70   75 1   
    74   71   72 2   
    75   71   76 1   
    76   76   77 1   
    77   76   85 1   
    78   77   78 1   
    79   77   80 1   
    80   77   86 1   
    81   78   79 2   
    82   78   93 1   
    83   80   81 1   
    84   80   87 1   
    85   80   88 1   
    86   81   82 1   
    87   81   89 1   
    88   81   90 1   
    89   82   83 1   
    90   82   84 2   
    91   83   91 1   
    92   83   92 1   
    93   93   94 1   
    94   93  100 1   
    95   94   95 1   
    96   94   97 1   
    97   94  101 1   
    98   95   96 2   
    99   95  109 1   
   100   97   98 1   
   101   97   99 1   
   102   97  102 1   
   103   98  103 1   
   104   98  104 1   
   105   98  105 1   
   106   99  106 1   
   107   99  107 1   
   108   99  108 1   
   109  109  110 1   
   110  109  117 1   
   111  110  111 1   
   112  110  113 1   
   113  110  118 1   
   114  111  112 2   
   115  111  123 1   
   116  113  114 1   
   117  113  119 1   
   118  113  120 1   
   119  114  115 1   
   120  114  116 2   
   121  115  121 1   
   122  115  122 1   
   123  123  124 1   
   124  123  135 1   
   125  124  125 1   
   126  124  127 1   
   127  124  136 1   
   128  125  126 2   
   129  125  144 1   
   130  127  128 1   
   131  127  137 1   
   132  127  138 1   
   133  128  129 ar  
   134  128  130 ar  
   135  129  131 ar  
   136  129  139 1   
   137  130  132 ar  
   138  130  140 1   
   139  131  133 ar  
   140  131  141 1   
   141  132  133 ar  
   142  132  142 1   
   143  133  134 1   
   144  134  143 1   
   145  144  145 1   
   146  144  153 1   
   147  145  146 1   
   148  145  148 1   
   149  145  154 1   
   150  146  147 2   
   151  146  159 1   
   152  148  149 1   
   153  148  155 1   
   154  148  156 1   
   155  149  150 1   
   156  149  157 1   
   157  149  158 1   
   158  150  151 1   
   159  150  152 1   
   160  159  160 1   
   161  159  168 1   
   162  160  161 1   
   163  160  163 1   
   164  160  169 1   
   165  161  162 2   
   166  161  174 1   
   167  163  164 1   
   168  163  170 1   
   169  163  171 1   
   170  164  165 1   
   171  164  172 1   
   172  164  173 1   
   173  165  166 1   
   174  165  167 1   
   175  174  175 1   
   176  174  179 1   
   177  175  176 1   
   178  175  177 1   
   179  175  178 1   
   180  181  182 1   
   181  181  183 1   
   182  184  185 1   
   183  184  186 1   
   184  187  188 1   
   185  187  189 1   
@<TRIPOS>SUBSTRUCTURE
     1 MOL         1 TEMP              0 ****  ****    0 ROOT
