@<TRIPOS>MOLECULE
MOL
  172   171     1     0     0
SMALL
resp


@<TRIPOS>ATOM
      1 C1          0.5770    3.9800    5.6170 c3        1 MOL     -0.432039
      2 C2          0.0130    3.9690    4.0940 c         1 MOL      0.619598
      3 O1          0.8540    4.0460    3.2100 o         1 MOL     -0.521859
      4 H1         -0.2460    4.1600    6.3080 hc        1 MOL      0.106427
      5 H2          1.0350    3.0170    5.8430 hc        1 MOL      0.106427
      6 H3          1.3200    4.7710    5.7240 hc        1 MOL      0.106427
      7 N1         -1.2720    3.8690    3.8710 n         1 MOL     -0.458933
      8 C3         -2.0800    3.5990    2.6720 c3        1 MOL     -0.020993
      9 C4         -2.2250    4.7980    1.7360 c         1 MOL      0.718856
     10 O2         -2.3340    5.9130    2.2110 o         1 MOL     -0.608158
     11 C5         -3.4770    2.8260    3.0570 c3        1 MOL     -0.343018
     12 C6         -4.1440    2.1170    1.8800 c         1 MOL      0.729676
     13 O3         -3.4490    1.9340    0.8470 o         1 MOL     -0.661415
     14 O4         -5.2880    1.7130    2.0460 o         1 MOL     -0.661415
     15 H4         -1.8670    3.9260    4.6810 hn        1 MOL      0.284658
     16 H5         -1.4210    2.9370    2.1140 h1        1 MOL      0.106246
     17 H6         -4.1370    3.5620    3.5060 hc        1 MOL      0.091599
     18 H7         -3.2840    2.1220    3.8710 hc        1 MOL      0.091599
     19 N2         -2.2250    4.4850    0.4430 n         1 MOL     -0.563810
     20 C7         -2.2440    5.4850   -0.6620 c3        1 MOL      0.176608
     21 C8         -3.3620    5.1940   -1.6970 c         1 MOL      0.551110
     22 O5         -3.8200    6.1610   -2.2920 o         1 MOL     -0.590993
     23 C9         -0.8930    5.4580   -1.3610 c3        1 MOL     -0.246100
     24 H8         -1.8870    3.5450    0.2770 hn        1 MOL      0.295568
     25 H9         -2.3940    6.4630   -0.1970 h1        1 MOL      0.044773
     26 H10        -0.6640    4.5210   -1.8610 hc        1 MOL      0.072367
     27 H11        -0.7920    6.1910   -2.1580 hc        1 MOL      0.072367
     28 H12        -0.1470    5.7030   -0.6020 hc        1 MOL      0.072367
     29 N3         -3.8500    3.9560   -1.7540 n         1 MOL     -0.428642
     30 C10        -4.9010    3.5050   -2.7820 c3        1 MOL      0.076014
     31 C11        -6.1350    2.5850   -2.3020 c         1 MOL      0.335212
     32 O6         -7.0610    2.3050   -3.1010 o         1 MOL     -0.518504
     33 C12        -4.0810    2.7160   -3.8200 c3        1 MOL     -0.206970
     34 C13        -3.3050    1.4660   -3.3670 c         1 MOL      0.825768
     35 O7         -3.4800    0.9370   -2.2370 o         1 MOL     -0.693004
     36 O8         -2.3880    1.1580   -4.1470 o         1 MOL     -0.693004
     37 H13        -3.4380    3.1670   -1.2710 hn        1 MOL      0.254757
     38 H14        -5.2590    4.4270   -3.2200 h1        1 MOL      0.089490
     39 H15        -3.3810    3.4450   -4.2190 hc        1 MOL      0.035266
     40 H16        -4.7870    2.3260   -4.5690 hc        1 MOL      0.035266
     41 N4         -6.0970    2.2330   -1.0270 n         1 MOL     -0.162240
     42 C14        -7.1870    1.4500   -0.4120 c3        1 MOL     -0.284189
     43 C15        -7.1680   -0.0520   -0.7810 c         1 MOL      0.502158
     44 O9         -8.1920   -0.7050   -0.4680 o         1 MOL     -0.619377
     45 H17        -5.3370    2.6090   -0.4860 hn        1 MOL      0.168005
     46 H18        -8.1840    1.8460   -0.6110 h1        1 MOL      0.151752
     47 H19        -6.9950    1.5940    0.6610 h1        1 MOL      0.151752
     48 N5         -6.1220   -0.6340   -1.3490 n         1 MOL     -0.123286
     49 C16        -6.2450   -2.0250   -1.8180 c3        1 MOL     -0.034583
     50 C17        -6.1980   -3.1410   -0.7930 c         1 MOL      0.465199
     51 O10        -6.1660   -4.3280   -1.1550 o         1 MOL     -0.530467
     52 C18        -5.1890   -2.1650   -2.9560 c3        1 MOL     -0.061681
     53 C19        -3.7580   -2.1620   -2.5300 c         1 MOL      0.359466
     54 N6         -2.8690   -2.5240   -3.4190 n         1 MOL     -0.476146
     55 O11        -3.3650   -2.0500   -1.3760 o         1 MOL     -0.529891
     56 H20        -5.2470   -0.1960   -1.5790 hn        1 MOL      0.114712
     57 H21        -7.1620   -2.1310   -2.4080 h1        1 MOL      0.096173
     58 H22        -5.2070   -1.3620   -3.6930 hc        1 MOL      0.042455
     59 H23        -5.3750   -3.0930   -3.4970 hc        1 MOL      0.042455
     60 H24        -3.2130   -2.6160   -4.3710 hn        1 MOL      0.296700
     61 H25        -1.9160   -2.4650   -3.1120 hn        1 MOL      0.296700
     62 N7         -6.3590   -2.8420    0.5070 n         1 MOL     -0.261630
     63 C20        -6.2590   -3.7070    1.6350 c3        1 MOL     -0.320886
     64 C21        -4.9080   -4.2320    2.0310 c         1 MOL      0.538143
     65 O12        -4.7730   -4.8640    3.0730 o         1 MOL     -0.601280
     66 H26        -6.5220   -1.8690    0.7340 hn        1 MOL      0.305654
     67 H27        -6.9590   -4.5340    1.4870 h1        1 MOL      0.134046
     68 H28        -6.6160   -3.1340    2.4890 h1        1 MOL      0.134046
     69 N8         -3.8920   -4.0070    1.2580 n         1 MOL      0.007082
     70 C22        -2.5440   -4.5610    1.4270 c3        1 MOL     -0.579002
     71 C23        -1.4920   -3.4660    1.4610 c         1 MOL      0.746504
     72 O13        -1.7210   -2.4110    0.8320 o         1 MOL     -0.611408
     73 C24        -2.2460   -5.6080    0.3470 c3        1 MOL      0.605041
     74 C25        -3.0490   -6.9030    0.4150 c3        1 MOL     -0.414380
     75 O14        -2.3480   -5.0850   -0.9290 oh        1 MOL     -0.610678
     76 H29        -4.1230   -3.5420    0.3910 hn        1 MOL      0.212184
     77 H30        -2.5710   -5.0590    2.4010 h1        1 MOL      0.167254
     78 H31        -1.2050   -5.9580    0.3880 h1        1 MOL     -0.032894
     79 H32        -2.1200   -4.1520   -0.8890 ho        1 MOL      0.373882
     80 H33        -2.3300   -7.7110    0.3040 hc        1 MOL      0.096892
     81 H34        -3.5080   -6.9840    1.4010 hc        1 MOL      0.096892
     82 H35        -3.8290   -7.0310   -0.3310 hc        1 MOL      0.096892
     83 N9         -0.3880   -3.7190    2.1500 n         1 MOL     -0.592803
     84 C26         0.8850   -2.9000    1.9990 c3        1 MOL      0.026534
     85 C27         1.7040   -3.2340    0.6470 c         1 MOL      0.531214
     86 O15         1.9260   -4.3780    0.3000 o         1 MOL     -0.569037
     87 C28         1.8130   -3.0270    3.2340 c3        1 MOL      0.088660
     88 C29         1.0350   -2.3730    4.4310 c3        1 MOL     -0.015351
     89 C30         3.1420   -2.3880    3.0550 c3        1 MOL     -0.301665
     90 C31         1.8940   -2.3880    5.7770 c3        1 MOL     -0.029434
     91 H36        -0.2720   -4.6780    2.4370 hn        1 MOL      0.303749
     92 H37         0.5550   -1.8620    1.9160 h1        1 MOL      0.087824
     93 H38         1.9140   -4.1110    3.3670 hc        1 MOL      0.011890
     94 H39         0.1130   -2.8520    4.7410 hc        1 MOL      0.014149
     95 H40         0.7540   -1.3510    4.1610 hc        1 MOL      0.014149
     96 H41         3.1030   -1.3120    2.9200 hc        1 MOL      0.061090
     97 H42         3.7030   -2.4830    3.9810 hc        1 MOL      0.061090
     98 H43         3.6150   -2.8840    2.2080 hc        1 MOL      0.061090
     99 H44         1.2380   -2.3930    6.6530 hc        1 MOL      0.003843
    100 H45         2.4580   -3.2910    5.9810 hc        1 MOL      0.003843
    101 H46         2.5490   -1.5130    5.8690 hc        1 MOL      0.003843
    102 N10         1.9740   -2.1890   -0.1100 n         1 MOL     -0.260861
    103 C32         2.7070   -2.1950   -1.3360 c3        1 MOL      0.021003
    104 C33         4.1370   -1.6580   -1.0840 c         1 MOL      0.448223
    105 O16         4.4400   -1.2980    0.0770 o         1 MOL     -0.465838
    106 C34         2.0060   -1.2880   -2.4110 c3        1 MOL     -0.277175
    107 C35         0.4560   -1.5620   -2.3580 c         1 MOL      0.761036
    108 O17        -0.2300   -0.9170   -1.5770 o         1 MOL     -0.689852
    109 O18        -0.0950   -2.3220   -3.2230 o         1 MOL     -0.689852
    110 H47         1.6070   -1.2730    0.1400 hn        1 MOL      0.317845
    111 H48         2.8020   -3.2200   -1.6870 h1        1 MOL      0.071687
    112 H49         2.4530   -1.5560   -3.3690 hc        1 MOL      0.062577
    113 H50         2.2640   -0.2840   -2.0940 hc        1 MOL      0.062577
    114 N11         5.0220   -1.5000   -2.0660 n         1 MOL     -0.572137
    115 C36         6.3980   -1.2200   -1.7830 c3        1 MOL      0.428655
    116 C37         6.7390    0.2190   -1.2230 c         1 MOL      0.371144
    117 O19         7.4610    0.3200   -0.2290 o         1 MOL     -0.500316
    118 C38         7.2110   -1.7290   -2.9300 c3        1 MOL     -0.351208
    119 C39         8.7160   -1.7300   -2.5420 ca        1 MOL      0.263672
    120 C40         9.1790   -2.6560   -1.6590 ca        1 MOL     -0.288918
    121 C41         9.5910   -0.8210   -3.1040 ca        1 MOL     -0.288918
    122 C42        10.4980   -2.5710   -1.1330 ca        1 MOL     -0.040140
    123 C43        10.9220   -0.6860   -2.5880 ca        1 MOL     -0.040140
    124 C44        11.3570   -1.5790   -1.6230 ca        1 MOL     -0.163402
    125 H51         4.7510   -1.8750   -2.9570 hn        1 MOL      0.317268
    126 H52         6.6980   -1.7390   -0.8780 h1        1 MOL      0.017815
    127 H53         7.1820   -1.0440   -3.7700 hc        1 MOL      0.091047
    128 H54         6.9750   -2.7700   -3.1650 hc        1 MOL      0.091047
    129 H55         8.4900   -3.3290   -1.1640 ha        1 MOL      0.142911
    130 H56         9.2490   -0.1790   -3.9020 ha        1 MOL      0.142911
    131 H57        10.8080   -3.3080   -0.4060 ha        1 MOL      0.101805
    132 H58        11.5280    0.1110   -2.9890 ha        1 MOL      0.101805
    133 H59        12.3820   -1.5410   -1.2810 ha        1 MOL      0.102771
    134 N12         6.1190    1.3480   -1.7010 n         1 MOL     -0.220598
    135 C45         6.2920    2.6820   -1.0730 c3        1 MOL      0.161511
    136 C46         5.6480    2.7690    0.2870 c         1 MOL      0.279376
    137 O20         6.1960    3.5250    1.1100 o         1 MOL     -0.509053
    138 C47         5.6880    3.6680   -2.0990 c3        1 MOL     -0.435416
    139 C48         4.5340    2.8320   -2.6750 c3        1 MOL      0.148512
    140 C49         5.1290    1.4370   -2.7810 c3        1 MOL     -0.103804
    141 H60         7.3670    2.8690   -0.9770 h1        1 MOL      0.058160
    142 H61         5.3830    4.5420   -1.5230 hc        1 MOL      0.144570
    143 H62         6.4160    3.7660   -2.8910 hc        1 MOL      0.144570
    144 H63         3.6780    2.8470   -1.9940 hc        1 MOL      0.007119
    145 H64         4.2100    3.1950   -3.6460 hc        1 MOL      0.007119
    146 H65         4.3240    0.7100   -2.6850 h1        1 MOL      0.045670
    147 H66         5.6590    1.3540   -3.7370 h1        1 MOL      0.045670
    148 N13         4.5230    2.0950    0.5710 n         1 MOL     -0.007054
    149 C50         3.8520    2.1360    1.8730 c3        1 MOL     -0.313532
    150 C51         4.7230    1.3370    2.9230 c         1 MOL      0.486869
    151 O21         4.8350    1.7360    4.0670 o         1 MOL     -0.547596
    152 C52         2.5410    1.5380    1.7630 c3        1 MOL     -0.007312
    153 C53         1.7110    2.2180    0.6680 c3        1 MOL     -0.203443
    154 C54         0.2870    1.6220    0.5720 c         1 MOL      0.690297
    155 O22        -0.4310    1.9660   -0.3940 o         1 MOL     -0.758548
    156 O23        -0.0600    0.6310    1.2800 o         1 MOL     -0.758548
    157 H67         4.1940    1.4020   -0.0910 hn        1 MOL      0.288686
    158 H68         3.6920    3.1650    2.1850 h1        1 MOL      0.162698
    159 H69         2.0390    1.5900    2.7330 hc        1 MOL      0.085463
    160 H70         2.6780    0.4860    1.5130 hc        1 MOL      0.085463
    161 H71         2.2140    2.0640   -0.2910 hc        1 MOL      0.054372
    162 H72         1.7130    3.2940    0.8830 hc        1 MOL      0.054372
    163 N14         5.4010    0.2400    2.5410 n         1 MOL     -0.008110
    164 C55         6.3820   -0.4270    3.4330 c3        1 MOL     -0.260195
    165 H73         5.9400   -0.5630    4.4210 h1        1 MOL      0.088873
    166 H74         6.6480   -1.4000    3.0180 h1        1 MOL      0.088873
    167 H75         7.2770    0.1900    3.5170 h1        1 MOL      0.088873
    168 H76         5.4230   -0.0680    1.5850 hn        1 MOL      0.086167
    169 Ca1        -2.2510    0.0350   -0.2040 Ca        1 MOL      1.646638
    170 O24        -4.2860   -0.8700    1.3840 oh        1 MOL     -0.817565
    171 H77        -4.8980   -0.2400    1.7730 ho        1 MOL      0.374759
    172 H78        -3.7290   -1.1510    2.1050 ho        1 MOL      0.374759
@<TRIPOS>BOND
     1    1    2 1   
     2    1    4 1   
     3    1    5 1   
     4    1    6 1   
     5    2    3 2   
     6    2    7 1   
     7    7    8 1   
     8    7   15 1   
     9    8    9 1   
    10    8   11 1   
    11    8   16 1   
    12    9   10 2   
    13    9   19 1   
    14   11   12 1   
    15   11   17 1   
    16   11   18 1   
    17   12   13 1   
    18   12   14 1   
    19   19   20 1   
    20   19   24 1   
    21   20   21 1   
    22   20   23 1   
    23   20   25 1   
    24   21   22 2   
    25   21   29 1   
    26   23   26 1   
    27   23   27 1   
    28   23   28 1   
    29   29   30 1   
    30   29   37 1   
    31   30   31 1   
    32   30   33 1   
    33   30   38 1   
    34   31   32 2   
    35   31   41 1   
    36   33   34 1   
    37   33   39 1   
    38   33   40 1   
    39   34   35 1   
    40   34   36 1   
    41   41   42 1   
    42   41   45 1   
    43   42   43 1   
    44   42   46 1   
    45   42   47 1   
    46   43   44 2   
    47   43   48 1   
    48   48   49 1   
    49   48   56 1   
    50   49   50 1   
    51   49   52 1   
    52   49   57 1   
    53   50   51 2   
    54   50   62 1   
    55   52   53 1   
    56   52   58 1   
    57   52   59 1   
    58   53   54 1   
    59   53   55 2   
    60   54   60 1   
    61   54   61 1   
    62   62   63 1   
    63   62   66 1   
    64   63   64 1   
    65   63   67 1   
    66   63   68 1   
    67   64   65 2   
    68   64   69 1   
    69   69   70 1   
    70   69   76 1   
    71   70   71 1   
    72   70   73 1   
    73   70   77 1   
    74   71   72 2   
    75   71   83 1   
    76   73   74 1   
    77   73   75 1   
    78   73   78 1   
    79   74   80 1   
    80   74   81 1   
    81   74   82 1   
    82   75   79 1   
    83   83   84 1   
    84   83   91 1   
    85   84   85 1   
    86   84   87 1   
    87   84   92 1   
    88   85   86 2   
    89   85  102 1   
    90   87   88 1   
    91   87   89 1   
    92   87   93 1   
    93   88   90 1   
    94   88   94 1   
    95   88   95 1   
    96   89   96 1   
    97   89   97 1   
    98   89   98 1   
    99   90   99 1   
   100   90  100 1   
   101   90  101 1   
   102  102  103 1   
   103  102  110 1   
   104  103  104 1   
   105  103  106 1   
   106  103  111 1   
   107  104  105 2   
   108  104  114 1   
   109  106  107 1   
   110  106  112 1   
   111  106  113 1   
   112  107  108 1   
   113  107  109 1   
   114  114  115 1   
   115  114  125 1   
   116  115  116 1   
   117  115  118 1   
   118  115  126 1   
   119  116  117 2   
   120  116  134 1   
   121  118  119 1   
   122  118  127 1   
   123  118  128 1   
   124  119  120 ar  
   125  119  121 ar  
   126  120  122 ar  
   127  120  129 1   
   128  121  123 ar  
   129  121  130 1   
   130  122  124 ar  
   131  122  131 1   
   132  123  124 ar  
   133  123  132 1   
   134  124  133 1   
   135  134  135 1   
   136  134  140 1   
   137  135  136 1   
   138  135  138 1   
   139  135  141 1   
   140  136  137 2   
   141  136  148 1   
   142  138  139 1   
   143  138  142 1   
   144  138  143 1   
   145  139  140 1   
   146  139  144 1   
   147  139  145 1   
   148  140  146 1   
   149  140  147 1   
   150  148  149 1   
   151  148  157 1   
   152  149  150 1   
   153  149  152 1   
   154  149  158 1   
   155  150  151 2   
   156  150  163 1   
   157  152  153 1   
   158  152  159 1   
   159  152  160 1   
   160  153  154 1   
   161  153  161 1   
   162  153  162 1   
   163  154  155 1   
   164  154  156 1   
   165  163  164 1   
   166  163  168 1   
   167  164  165 1   
   168  164  166 1   
   169  164  167 1   
   170  170  171 1   
   171  170  172 1   
@<TRIPOS>SUBSTRUCTURE
     1 MOL         1 TEMP              0 ****  ****    0 ROOT
