@<TRIPOS>MOLECULE
MOL
  172   171     1     0     0
SMALL
resp


@<TRIPOS>ATOM
      1 C1         -0.0150   -2.9030    5.5590 c3        1 MOL     -0.342204
      2 C2          0.4220   -2.6030    4.0910 c         1 MOL      0.807264
      3 O1         -0.1860   -3.1580    3.1650 o         1 MOL     -0.608833
      4 H1         -0.9700   -3.4270    5.5530 hc        1 MOL      0.076094
      5 H2          0.7370   -3.5250    6.0430 hc        1 MOL      0.076094
      6 H3         -0.1190   -1.9660    6.1070 hc        1 MOL      0.076094
      7 N1          1.4530   -1.8870    3.8440 n         1 MOL     -0.669599
      8 C3          2.2350   -1.8940    2.6240 c3        1 MOL      0.246515
      9 C4          2.7080   -3.2620    2.2600 c         1 MOL      0.525656
     10 O2          3.5210   -3.8730    2.9660 o         1 MOL     -0.610852
     11 C5          3.4950   -1.0550    2.7160 c3        1 MOL     -0.229817
     12 C6          3.9800   -0.5910    1.3030 c         1 MOL      0.584989
     13 O3          5.1090   -0.1300    1.1810 o         1 MOL     -0.702593
     14 O4          3.2470   -0.6690    0.2930 o         1 MOL     -0.702593
     15 H4          1.7250   -1.2220    4.5630 hn        1 MOL      0.293405
     16 H5          1.5800   -1.5120    1.8420 h1        1 MOL      0.029200
     17 H6          4.3360   -1.5180    3.2210 hc        1 MOL      0.068406
     18 H7          3.2680   -0.1490    3.2870 hc        1 MOL      0.068406
     19 N2          2.2720   -3.7440    1.0770 n         1 MOL     -0.382341
     20 C7          2.5770   -5.0290    0.4700 c3        1 MOL      0.245621
     21 C8          3.8080   -4.9660   -0.4470 c         1 MOL      0.376395
     22 O5          4.5430   -5.9020   -0.6110 o         1 MOL     -0.577128
     23 C9          1.3180   -5.4910   -0.2090 c3        1 MOL     -0.299340
     24 H8          1.7550   -3.0750    0.5370 hn        1 MOL      0.325543
     25 H9          2.7320   -5.8130    1.2190 h1        1 MOL      0.011541
     26 H10         1.4700   -6.4650   -0.6840 hc        1 MOL      0.083136
     27 H11         0.4380   -5.4910    0.4400 hc        1 MOL      0.083136
     28 H12         1.1090   -4.8530   -1.0620 hc        1 MOL      0.083136
     29 N3          4.0930   -3.7790   -0.9530 n         1 MOL     -0.008426
     30 C10         5.0440   -3.5000   -1.9580 c3        1 MOL     -0.184838
     31 C11         6.4270   -2.9980   -1.4000 c         1 MOL      0.442050
     32 O6          7.2940   -2.6570   -2.1800 o         1 MOL     -0.522201
     33 C12         4.5000   -2.4790   -2.9750 c3        1 MOL      0.052496
     34 C13         3.0620   -2.6500   -3.3390 c         1 MOL      0.668792
     35 O7          2.3010   -1.6880   -3.1060 o         1 MOL     -0.701354
     36 O8          2.6660   -3.6260   -4.0230 o         1 MOL     -0.701354
     37 H13         3.4950   -2.9940   -0.7070 hn        1 MOL      0.048818
     38 H14         5.1860   -4.4150   -2.5400 h1        1 MOL      0.131196
     39 H15         5.0350   -2.5960   -3.9200 hc        1 MOL     -0.025024
     40 H16         4.6670   -1.4600   -2.5980 hc        1 MOL     -0.025024
     41 N4          6.7340   -3.0220   -0.0610 n         1 MOL     -0.350885
     42 C14         7.8460   -2.2470    0.4830 c3        1 MOL      0.005643
     43 C15         8.0960   -0.8070   -0.0290 c         1 MOL      0.397015
     44 O9          9.1830   -0.3110    0.0370 o         1 MOL     -0.564459
     45 H17         6.0790   -3.4430    0.5750 hn        1 MOL      0.247672
     46 H18         8.7900   -2.7740    0.3880 h1        1 MOL      0.063288
     47 H19         7.6980   -2.1110    1.5590 h1        1 MOL      0.063288
     48 N5          7.2130   -0.1460   -0.8080 n         1 MOL     -0.084077
     49 C16         7.3130    1.1340   -1.4800 c3        1 MOL     -0.323849
     50 C17         7.3460    2.4620   -0.5700 c         1 MOL      0.449732
     51 O10         7.6700    3.6290   -0.8800 o         1 MOL     -0.557544
     52 C18         6.4350    1.1640   -2.7490 c3        1 MOL     -0.090766
     53 C19         4.9950    1.6880   -2.4890 c         1 MOL      0.653334
     54 N6          4.6180    2.9040   -2.7870 n         1 MOL     -0.729741
     55 O11         4.0630    1.0030   -2.0690 o         1 MOL     -0.676063
     56 H20         6.2790   -0.5220   -0.7640 hn        1 MOL      0.377498
     57 H21         8.3280    1.1550   -1.8700 h1        1 MOL      0.167036
     58 H22         6.3200    0.1360   -3.0750 hc        1 MOL      0.061775
     59 H23         6.8800    1.7370   -3.5580 hc        1 MOL      0.061775
     60 H24         5.2140    3.6170   -3.1840 hn        1 MOL      0.325942
     61 H25         3.6150    3.0340   -2.7780 hn        1 MOL      0.325942
     62 N7          6.9120    2.2060    0.6400 n         1 MOL     -0.077959
     63 C20         6.7560    3.2050    1.6510 c3        1 MOL     -0.320007
     64 C21         5.4060    3.9180    1.7320 c         1 MOL      0.686044
     65 O12         5.3690    4.8600    2.4740 o         1 MOL     -0.606349
     66 H26         6.6220    1.2710    0.8940 hn        1 MOL      0.200000
     67 H27         7.4740    4.0210    1.5350 h1        1 MOL      0.127868
     68 H28         6.9100    2.6430    2.5750 h1        1 MOL      0.127868
     69 N8          4.3760    3.5570    1.0420 n         1 MOL     -0.478444
     70 C22         3.0440    4.2190    0.8390 c3        1 MOL      0.138624
     71 C23         1.8800    3.2260    0.8350 c         1 MOL      0.516549
     72 O13         2.0660    2.0890    0.4160 o         1 MOL     -0.446387
     73 C24         3.0590    5.1510   -0.3390 c3        1 MOL      0.382308
     74 C25         4.3790    5.7820   -0.6930 c3        1 MOL     -0.325559
     75 O14         2.5280    4.5510   -1.5000 oh        1 MOL     -0.630612
     76 H29         4.3450    2.6450    0.6080 hn        1 MOL      0.310462
     77 H30         2.9290    4.8600    1.7070 h1        1 MOL      0.022201
     78 H31         2.4530    6.0280   -0.0790 h1        1 MOL     -0.038347
     79 H32         2.7280    5.1580   -2.2210 ho        1 MOL      0.392780
     80 H33         5.1690    5.1030   -1.0190 hc        1 MOL      0.083962
     81 H34         4.1570    6.4990   -1.4820 hc        1 MOL      0.083962
     82 H35         4.6770    6.3100    0.2230 hc        1 MOL      0.083962
     83 N9          0.6410    3.6740    1.1890 n         1 MOL     -0.614707
     84 C26        -0.6200    2.8930    1.1580 c3        1 MOL      0.215749
     85 C27        -1.3380    3.0300   -0.1640 c         1 MOL      0.461623
     86 O15        -1.2860    4.0830   -0.8700 o         1 MOL     -0.592339
     87 C28        -1.4440    3.3190    2.4100 c3        1 MOL      0.029324
     88 C29        -0.8580    2.8230    3.7790 c3        1 MOL      0.109159
     89 C30        -2.9570    3.0450    2.3250 c3        1 MOL     -0.075867
     90 C31        -1.3510    3.6040    5.0120 c3        1 MOL     -0.242346
     91 H36         0.5600    4.6520    1.4350 hn        1 MOL      0.283635
     92 H37        -0.3980    1.8410    1.3040 h1        1 MOL      0.015163
     93 H38        -1.5600    4.4000    2.5150 hc        1 MOL      0.004113
     94 H39         0.2310    2.8580    3.7690 hc        1 MOL     -0.000035
     95 H40        -1.1280    1.7800    3.9090 hc        1 MOL     -0.000035
     96 H41        -3.4590    3.4760    1.4570 hc        1 MOL      0.003021
     97 H42        -3.1970    1.9850    2.3110 hc        1 MOL      0.003021
     98 H43        -3.4640    3.4130    3.2290 hc        1 MOL      0.003021
     99 H44        -2.4300    3.4080    5.0330 hc        1 MOL      0.052652
    100 H45        -0.7850    3.2500    5.8740 hc        1 MOL      0.052652
    101 H46        -1.2180    4.6760    4.9150 hc        1 MOL      0.052652
    102 N10        -2.0570    1.9500   -0.5210 n         1 MOL     -0.342273
    103 C32        -3.0920    1.9520   -1.5990 c3        1 MOL      0.134124
    104 C33        -4.4120    1.2310   -1.1640 c         1 MOL      0.398322
    105 O16        -4.5570    0.8540    0.0320 o         1 MOL     -0.283140
    106 C34        -2.5940    1.4880   -2.9790 c3        1 MOL     -0.540797
    107 C35        -1.9940    0.0790   -2.9690 c         1 MOL      0.905029
    108 O17        -0.8500   -0.1090   -2.6240 o         1 MOL     -0.751316
    109 O18        -2.6710   -0.9210   -3.3500 o         1 MOL     -0.751316
    110 H47        -1.8130    1.0990   -0.0340 hn        1 MOL      0.313505
    111 H48        -3.3520    3.0060   -1.6650 h1        1 MOL      0.102745
    112 H49        -1.7440    2.0880   -3.3020 hc        1 MOL      0.116526
    113 H50        -3.3160    1.5760   -3.7890 hc        1 MOL      0.116526
    114 N11        -5.4800    1.3460   -1.9460 n         1 MOL     -0.739853
    115 C36        -6.8540    1.2150   -1.4060 c3        1 MOL      0.541299
    116 C37        -7.2370   -0.0730   -0.6000 c         1 MOL      0.305522
    117 O19        -7.7200    0.0630    0.5340 o         1 MOL     -0.499995
    118 C38        -7.8930    1.4530   -2.5670 c3        1 MOL     -0.317735
    119 C39        -9.3330    1.3510   -2.0750 ca        1 MOL      0.141015
    120 C40        -9.8890    2.3690   -1.2060 ca        1 MOL     -0.209271
    121 C41       -10.1850    0.2610   -2.4490 ca        1 MOL     -0.209271
    122 C42       -11.2200    2.2600   -0.6860 ca        1 MOL     -0.105021
    123 C43       -11.5170    0.1360   -1.9560 ca        1 MOL     -0.105021
    124 C44       -11.9830    1.1250   -1.0360 ca        1 MOL     -0.093157
    125 H51        -5.3940    1.6060   -2.9250 hn        1 MOL      0.355891
    126 H52        -6.9130    2.0110   -0.6640 h1        1 MOL      0.005133
    127 H53        -7.7730    0.6990   -3.3530 hc        1 MOL      0.083486
    128 H54        -7.6860    2.4010   -3.0600 hc        1 MOL      0.083486
    129 H55        -9.2430    3.1930   -0.9160 ha        1 MOL      0.130402
    130 H56        -9.7910   -0.5400   -3.0600 ha        1 MOL      0.130402
    131 H57       -11.6330    3.0230   -0.0380 ha        1 MOL      0.117207
    132 H58       -12.2370   -0.6160   -2.2560 ha        1 MOL      0.117207
    133 H59       -13.0160    1.0560   -0.6940 ha        1 MOL      0.085874
    134 N12        -6.8360   -1.3190   -1.0380 n         1 MOL     -0.069692
    135 C45        -7.0160   -2.4650   -0.1710 c3        1 MOL      0.231751
    136 C46        -6.1440   -2.6130    1.0700 c         1 MOL      0.198221
    137 O20        -6.4280   -3.3530    1.9770 o         1 MOL     -0.521142
    138 C47        -6.6660   -3.7050   -1.0670 c3        1 MOL     -0.055109
    139 C48        -6.9010   -3.1490   -2.5320 c3        1 MOL      0.043518
    140 C49        -6.4880   -1.7060   -2.3760 c3        1 MOL     -0.409393
    141 H60        -8.0420   -2.5840    0.1650 h1        1 MOL      0.024718
    142 H61        -5.6290   -3.9140   -0.7810 hc        1 MOL      0.025618
    143 H62        -7.4050   -4.4890   -0.8750 hc        1 MOL      0.025618
    144 H63        -6.4040   -3.6910   -3.3410 hc        1 MOL      0.014804
    145 H64        -7.9890   -3.1950   -2.5660 hc        1 MOL      0.014804
    146 H65        -5.4000   -1.7790   -2.4220 h1        1 MOL      0.183153
    147 H66        -6.9210   -1.1590   -3.2270 h1        1 MOL      0.183153
    148 N13        -5.0910   -1.8480    1.1580 n         1 MOL      0.004486
    149 C50        -4.0840   -1.7680    2.3180 c3        1 MOL     -0.045859
    150 C51        -4.6820   -0.6810    3.2580 c         1 MOL      0.414648
    151 O21        -4.5610   -0.8120    4.5160 o         1 MOL     -0.584477
    152 C52        -2.7110   -1.2640    1.8270 c3        1 MOL      0.080197
    153 C53        -2.0660   -2.0920    0.7130 c3        1 MOL     -0.254817
    154 C54        -0.7100   -1.5890    0.2560 c         1 MOL      1.020871
    155 O22        -0.4000   -0.3970    0.2480 o         1 MOL     -0.876139
    156 O23         0.2330   -2.2900   -0.2600 o         1 MOL     -0.876139
    157 H67        -5.0600   -1.1530    0.4270 hn        1 MOL      0.049804
    158 H68        -3.9060   -2.7140    2.8230 h1        1 MOL      0.114400
    159 H69        -2.0450   -1.3230    2.6910 hc        1 MOL     -0.023540
    160 H70        -2.8000   -0.2150    1.5640 hc        1 MOL     -0.023540
    161 H71        -2.7410   -2.0940   -0.1420 hc        1 MOL      0.078084
    162 H72        -1.9390   -3.1570    0.8940 hc        1 MOL      0.078084
    163 N14        -5.4610    0.2920    2.7940 n         1 MOL      0.035771
    164 C55        -6.3150    1.2170    3.5920 c3        1 MOL     -0.212011
    165 H73        -6.8050    0.6600    4.3910 h1        1 MOL      0.083171
    166 H74        -5.6950    2.0020    4.0240 h1        1 MOL      0.083171
    167 H75        -7.0700    1.6640    2.9450 h1        1 MOL      0.083171
    168 H76        -5.4870    0.3710    1.7850 hn        1 MOL     -0.011149
    169 Ca1         1.6230    0.0610   -1.3800 Ca        1 MOL      1.755874
    170 O24         1.0510    2.2880   -2.5400 oh        1 MOL     -0.836571
    171 H77         1.1190    3.1990   -2.2520 ho        1 MOL      0.405278
    172 H78         0.8490    2.3500   -3.4780 ho        1 MOL      0.405278
@<TRIPOS>BOND
     1    1    2 1   
     2    1    4 1   
     3    1    5 1   
     4    1    6 1   
     5    2    3 2   
     6    2    7 1   
     7    7    8 1   
     8    7   15 1   
     9    8    9 1   
    10    8   11 1   
    11    8   16 1   
    12    9   10 2   
    13    9   19 1   
    14   11   12 1   
    15   11   17 1   
    16   11   18 1   
    17   12   13 1   
    18   12   14 1   
    19   19   20 1   
    20   19   24 1   
    21   20   21 1   
    22   20   23 1   
    23   20   25 1   
    24   21   22 2   
    25   21   29 1   
    26   23   26 1   
    27   23   27 1   
    28   23   28 1   
    29   29   30 1   
    30   29   37 1   
    31   30   31 1   
    32   30   33 1   
    33   30   38 1   
    34   31   32 2   
    35   31   41 1   
    36   33   34 1   
    37   33   39 1   
    38   33   40 1   
    39   34   35 1   
    40   34   36 1   
    41   41   42 1   
    42   41   45 1   
    43   42   43 1   
    44   42   46 1   
    45   42   47 1   
    46   43   44 2   
    47   43   48 1   
    48   48   49 1   
    49   48   56 1   
    50   49   50 1   
    51   49   52 1   
    52   49   57 1   
    53   50   51 2   
    54   50   62 1   
    55   52   53 1   
    56   52   58 1   
    57   52   59 1   
    58   53   54 1   
    59   53   55 2   
    60   54   60 1   
    61   54   61 1   
    62   62   63 1   
    63   62   66 1   
    64   63   64 1   
    65   63   67 1   
    66   63   68 1   
    67   64   65 2   
    68   64   69 1   
    69   69   70 1   
    70   69   76 1   
    71   70   71 1   
    72   70   73 1   
    73   70   77 1   
    74   71   72 2   
    75   71   83 1   
    76   73   74 1   
    77   73   75 1   
    78   73   78 1   
    79   74   80 1   
    80   74   81 1   
    81   74   82 1   
    82   75   79 1   
    83   83   84 1   
    84   83   91 1   
    85   84   85 1   
    86   84   87 1   
    87   84   92 1   
    88   85   86 2   
    89   85  102 1   
    90   87   88 1   
    91   87   89 1   
    92   87   93 1   
    93   88   90 1   
    94   88   94 1   
    95   88   95 1   
    96   89   96 1   
    97   89   97 1   
    98   89   98 1   
    99   90   99 1   
   100   90  100 1   
   101   90  101 1   
   102  102  103 1   
   103  102  110 1   
   104  103  104 1   
   105  103  106 1   
   106  103  111 1   
   107  104  105 2   
   108  104  114 1   
   109  106  107 1   
   110  106  112 1   
   111  106  113 1   
   112  107  108 1   
   113  107  109 1   
   114  114  115 1   
   115  114  125 1   
   116  115  116 1   
   117  115  118 1   
   118  115  126 1   
   119  116  117 2   
   120  116  134 1   
   121  118  119 1   
   122  118  127 1   
   123  118  128 1   
   124  119  120 ar  
   125  119  121 ar  
   126  120  122 ar  
   127  120  129 1   
   128  121  123 ar  
   129  121  130 1   
   130  122  124 ar  
   131  122  131 1   
   132  123  124 ar  
   133  123  132 1   
   134  124  133 1   
   135  134  135 1   
   136  134  140 1   
   137  135  136 1   
   138  135  138 1   
   139  135  141 1   
   140  136  137 2   
   141  136  148 1   
   142  138  139 1   
   143  138  142 1   
   144  138  143 1   
   145  139  140 1   
   146  139  144 1   
   147  139  145 1   
   148  140  146 1   
   149  140  147 1   
   150  148  149 1   
   151  148  157 1   
   152  149  150 1   
   153  149  152 1   
   154  149  158 1   
   155  150  151 2   
   156  150  163 1   
   157  152  153 1   
   158  152  159 1   
   159  152  160 1   
   160  153  154 1   
   161  153  161 1   
   162  153  162 1   
   163  154  155 1   
   164  154  156 1   
   165  163  164 1   
   166  163  168 1   
   167  164  165 1   
   168  164  166 1   
   169  164  167 1   
   170  170  171 1   
   171  170  172 1   
@<TRIPOS>SUBSTRUCTURE
     1 MOL         1 TEMP              0 ****  ****    0 ROOT
