@<TRIPOS>MOLECULE
MOL
  172   171     1     0     0
SMALL
resp


@<TRIPOS>ATOM
      1 C1          0.2550    4.2000    5.1800 c3        1 MOL     -0.403444
      2 C2         -0.5100    4.1000    3.8490 c         1 MOL      0.766092
      3 O1          0.2080    4.0100    2.8570 o         1 MOL     -0.558721
      4 H1         -0.2520    4.9050    5.8380 hc        1 MOL      0.093982
      5 H2          0.2890    3.2200    5.6540 hc        1 MOL      0.093982
      6 H3          1.2710    4.5480    4.9910 hc        1 MOL      0.093982
      7 N1         -1.8500    4.0340    3.7630 n         1 MOL     -0.719429
      8 C3         -2.5010    3.6980    2.4800 c3        1 MOL      0.335485
      9 C4         -2.5950    4.8440    1.4930 c         1 MOL      0.616396
     10 O2         -2.6970    5.9980    1.9990 o         1 MOL     -0.588796
     11 C5         -3.8840    3.1080    2.7770 c3        1 MOL     -0.203816
     12 C6         -4.5670    2.3210    1.6410 c         1 MOL      0.657019
     13 O3         -5.8080    2.2010    1.6510 o         1 MOL     -0.647165
     14 O4         -3.8010    1.8580    0.7350 o         1 MOL     -0.647165
     15 H4         -2.3350    3.8810    4.6470 hn        1 MOL      0.327798
     16 H5         -1.9480    2.9170    1.9680 h1        1 MOL     -0.134309
     17 H6         -4.5180    3.9490    3.0460 hc        1 MOL      0.036307
     18 H7         -3.7220    2.4780    3.6590 hc        1 MOL      0.036307
     19 N2         -2.6920    4.6760    0.1620 n         1 MOL     -0.460491
     20 C7         -3.1280    5.6520   -0.7770 c3        1 MOL      0.096171
     21 C8         -4.1740    5.1250   -1.7980 c         1 MOL      0.620372
     22 O5         -4.7300    5.8770   -2.6050 o         1 MOL     -0.591005
     23 C9         -1.9510    6.4080   -1.4210 c3        1 MOL     -0.249972
     24 H8         -2.4860    3.7470   -0.1850 hn        1 MOL      0.311230
     25 H9         -3.7200    6.3700   -0.2140 h1        1 MOL      0.039333
     26 H10        -1.4730    7.0490   -0.6770 hc        1 MOL      0.067356
     27 H11        -1.1340    5.7580   -1.7540 hc        1 MOL      0.067356
     28 H12        -2.2290    6.9860   -2.3000 hc        1 MOL      0.067356
     29 N3         -4.5320    3.8370   -1.6640 n         1 MOL     -0.431128
     30 C10        -5.2730    3.1180   -2.7300 c3        1 MOL     -0.038327
     31 C11        -6.5110    2.2090   -2.3500 c         1 MOL      0.341565
     32 O6         -7.2920    1.8920   -3.2260 o         1 MOL     -0.515381
     33 C12        -4.3480    2.2070   -3.4770 c3        1 MOL     -0.099839
     34 C13        -3.4800    1.3170   -2.5540 c         1 MOL      0.705183
     35 O7         -3.8890    0.6470   -1.6190 o         1 MOL     -0.732241
     36 O8         -2.2370    1.2940   -2.6960 o         1 MOL     -0.732241
     37 H13        -4.1850    3.2800   -0.9040 hn        1 MOL      0.258857
     38 H14        -5.5090    3.8870   -3.4670 h1        1 MOL      0.118435
     39 H15        -3.6690    2.8680   -4.0230 hc        1 MOL      0.039565
     40 H16        -4.8350    1.5810   -4.2240 hc        1 MOL      0.039565
     41 N4         -6.6540    1.7640   -1.0630 n         1 MOL      0.017516
     42 C14        -7.5610    0.8140   -0.5750 c3        1 MOL     -0.419247
     43 C15        -7.3490   -0.6160   -1.0240 c         1 MOL      0.655579
     44 O9         -8.3240   -1.2960   -1.2030 o         1 MOL     -0.647633
     45 H17        -5.9520    2.0840   -0.4160 hn        1 MOL      0.079728
     46 H18        -8.5510    1.0800   -0.9390 h1        1 MOL      0.152110
     47 H19        -7.5660    0.8330    0.5130 h1        1 MOL      0.152110
     48 N5         -6.1960   -1.1400   -1.3720 n         1 MOL     -0.178387
     49 C16        -6.0790   -2.5140   -1.9970 c3        1 MOL      0.018427
     50 C17        -6.1220   -3.6650   -0.9110 c         1 MOL      0.306075
     51 O10        -6.1020   -4.8740   -1.2950 o         1 MOL     -0.489496
     52 C18        -4.9520   -2.6630   -3.0360 c3        1 MOL     -0.157208
     53 C19        -3.6120   -2.4350   -2.4430 c         1 MOL      0.838937
     54 N6         -2.5860   -2.3630   -3.2560 n         1 MOL     -0.719990
     55 O11        -3.4360   -2.3340   -1.2020 o         1 MOL     -0.792573
     56 H20        -5.4200   -0.5080   -1.5140 hn        1 MOL      0.113310
     57 H21        -6.9990   -2.5580   -2.5730 h1        1 MOL      0.100207
     58 H22        -5.1720   -1.9740   -3.8550 hc        1 MOL      0.059284
     59 H23        -4.9590   -3.6630   -3.4730 hc        1 MOL      0.059284
     60 H24        -2.5790   -2.6110   -4.2360 hn        1 MOL      0.335739
     61 H25        -1.6790   -2.2290   -2.8270 hn        1 MOL      0.335739
     62 N7         -6.2780   -3.3380    0.3810 n         1 MOL     -0.129415
     63 C20        -6.2980   -4.2300    1.5420 c3        1 MOL     -0.028713
     64 C21        -4.9060   -4.7740    1.9710 c         1 MOL      0.482207
     65 O12        -4.8090   -5.9010    2.5590 o         1 MOL     -0.567898
     66 H26        -6.3150   -2.3320    0.5240 hn        1 MOL      0.147238
     67 H27        -7.0330   -5.0240    1.3690 h1        1 MOL      0.064281
     68 H28        -6.6430   -3.6970    2.4210 h1        1 MOL      0.064281
     69 N8         -3.7840   -4.1240    1.5860 n         1 MOL     -0.274157
     70 C22        -2.3480   -4.5320    1.6330 c3        1 MOL     -0.179962
     71 C23        -1.3570   -3.3410    1.7220 c         1 MOL      0.474544
     72 O13        -1.6220   -2.2290    1.2350 o         1 MOL     -0.556340
     73 C24        -1.9580   -5.3900    0.4350 c3        1 MOL      0.700633
     74 C25        -2.3520   -6.8580    0.7160 c3        1 MOL     -0.529565
     75 O14        -2.5040   -4.9760   -0.8200 oh        1 MOL     -0.649343
     76 H29        -3.8810   -3.2680    1.0580 hn        1 MOL      0.189919
     77 H30        -2.2950   -5.1310    2.5330 h1        1 MOL      0.096091
     78 H31        -0.8650   -5.3710    0.3590 h1        1 MOL     -0.070952
     79 H32        -2.7030   -4.0310   -0.7900 ho        1 MOL      0.361618
     80 H33        -1.8380   -7.2960   -0.1450 hc        1 MOL      0.119322
     81 H34        -1.8510   -7.1980    1.6230 hc        1 MOL      0.119322
     82 H35        -3.4360   -6.9250    0.7170 hc        1 MOL      0.119322
     83 N9         -0.2500   -3.6040    2.3570 n         1 MOL     -0.362544
     84 C26         0.9390   -2.7610    2.2250 c3        1 MOL      0.057587
     85 C27         1.6640   -3.0620    0.8840 c         1 MOL      0.345818
     86 O15         1.8120   -4.2010    0.4860 o         1 MOL     -0.551559
     87 C28         1.8770   -2.7950    3.4480 c3        1 MOL      0.199105
     88 C29         1.1820   -2.0030    4.5950 c3        1 MOL     -0.061956
     89 C30         3.3320   -2.2800    2.9960 c3        1 MOL     -0.347727
     90 C31         2.0740   -1.8930    5.8170 c3        1 MOL     -0.026532
     91 H36        -0.1230   -4.5260    2.7790 hn        1 MOL      0.245701
     92 H37         0.5650   -1.7450    2.1010 h1        1 MOL     -0.002615
     93 H38         2.0390   -3.8130    3.7920 hc        1 MOL     -0.026558
     94 H39         0.2520   -2.5380    4.7890 hc        1 MOL      0.014871
     95 H40         1.1120   -0.9600    4.2760 hc        1 MOL      0.014871
     96 H41         3.7470   -3.0800    2.3750 hc        1 MOL      0.080134
     97 H42         3.1820   -1.3740    2.4100 hc        1 MOL      0.080134
     98 H43         4.1020   -2.2200    3.7750 hc        1 MOL      0.080134
     99 H44         2.2240   -2.7990    6.4030 hc        1 MOL      0.001518
    100 H45         3.0310   -1.4150    5.5790 hc        1 MOL      0.001518
    101 H46         1.5910   -1.2250    6.5270 hc        1 MOL      0.001518
    102 N10         1.9910   -1.9920    0.1690 n         1 MOL     -0.016747
    103 C32         2.6660   -1.9350   -1.0800 c3        1 MOL     -0.094676
    104 C33         4.1560   -1.5120   -0.8450 c         1 MOL      0.532819
    105 O16         4.5000   -1.0220    0.2390 o         1 MOL     -0.434706
    106 C34         1.9630   -0.9420   -2.0750 c3        1 MOL     -0.204104
    107 C35         0.5300   -1.3310   -2.3540 c         1 MOL      0.677369
    108 O17        -0.4340   -1.1750   -1.5370 o         1 MOL     -0.653148
    109 O18         0.3880   -1.7440   -3.5090 o         1 MOL     -0.653148
    110 H47         1.6700   -1.0930    0.5200 hn        1 MOL      0.187179
    111 H48         2.6560   -2.9470   -1.4780 h1        1 MOL      0.088021
    112 H49         2.5650   -0.8350   -2.9740 hc        1 MOL      0.076238
    113 H50         1.9320    0.0640   -1.6620 hc        1 MOL      0.076238
    114 N11         5.1390   -1.8040   -1.7290 n         1 MOL     -0.677081
    115 C36         6.5060   -1.3170   -1.5270 c3        1 MOL      0.542148
    116 C37         6.7310    0.1620   -1.2460 c         1 MOL      0.260523
    117 O19         7.5840    0.4190   -0.3390 o         1 MOL     -0.451175
    118 C38         7.4680   -1.7650   -2.6720 c3        1 MOL     -0.412478
    119 C39         8.9540   -1.6240   -2.3370 ca        1 MOL      0.206649
    120 C40         9.5190   -2.4040   -1.3700 ca        1 MOL     -0.249089
    121 C41         9.7990   -0.6850   -3.0130 ca        1 MOL     -0.249089
    122 C42        10.9060   -2.3400   -1.0340 ca        1 MOL     -0.033475
    123 C43        11.1700   -0.6220   -2.7500 ca        1 MOL     -0.033475
    124 C44        11.7190   -1.4470   -1.7650 ca        1 MOL     -0.170800
    125 H51         5.0290   -2.4210   -2.5330 hn        1 MOL      0.318787
    126 H52         6.8590   -1.8520   -0.6480 h1        1 MOL      0.008280
    127 H53         7.2290   -1.3540   -3.6480 hc        1 MOL      0.105495
    128 H54         7.3290   -2.8500   -2.6830 hc        1 MOL      0.105495
    129 H55         8.9420   -3.2360   -0.9970 ha        1 MOL      0.136251
    130 H56         9.4070    0.0990   -3.6410 ha        1 MOL      0.136251
    131 H57        11.3410   -3.0680   -0.3670 ha        1 MOL      0.094250
    132 H58        11.7130    0.0340   -3.4080 ha        1 MOL      0.094250
    133 H59        12.7900   -1.4340   -1.6360 ha        1 MOL      0.101779
    134 N12         5.9860    1.1370   -1.8590 n         1 MOL     -0.075999
    135 C45         6.1150    2.5940   -1.5320 c3        1 MOL     -0.027006
    136 C46         5.7700    2.8270   -0.0830 c         1 MOL      0.300802
    137 O20         6.3940    3.5320    0.6920 o         1 MOL     -0.491496
    138 C47         5.2010    3.2910   -2.5170 c3        1 MOL      0.188906
    139 C48         5.2500    2.3610   -3.6920 c3        1 MOL     -0.206040
    140 C49         5.1540    0.9500   -3.0380 c3        1 MOL      0.154827
    141 H60         7.1340    2.9650   -1.6390 h1        1 MOL      0.055595
    142 H61         4.1850    3.4060   -2.1300 hc        1 MOL     -0.007498
    143 H62         5.4680    4.3190   -2.7720 hc        1 MOL     -0.007498
    144 H63         4.3570    2.3680   -4.3160 hc        1 MOL      0.050679
    145 H64         6.1900    2.5180   -4.2290 hc        1 MOL      0.050679
    146 H65         4.1490    0.6370   -2.7190 h1        1 MOL     -0.007018
    147 H66         5.6570    0.2190   -3.6660 h1        1 MOL     -0.007018
    148 N13         4.6890    2.2110    0.3380 n         1 MOL     -0.031533
    149 C50         4.1200    2.3490    1.6580 c3        1 MOL     -0.171143
    150 C51         4.9950    1.7190    2.7500 c         1 MOL      0.405485
    151 O21         5.0890    2.2240    3.8370 o         1 MOL     -0.560549
    152 C52         2.7400    1.6860    1.7480 c3        1 MOL     -0.186462
    153 C53         1.8750    2.1570    0.5500 c3        1 MOL     -0.248469
    154 C54         0.4760    1.5040    0.6440 c         1 MOL      0.691196
    155 O22         0.3010    0.2960    0.8950 o         1 MOL     -0.715409
    156 O23        -0.5450    2.0720    0.0960 o         1 MOL     -0.715409
    157 H67         4.3800    1.4400   -0.2300 hn        1 MOL      0.028354
    158 H68         4.0310    3.4080    1.9320 h1        1 MOL      0.159098
    159 H69         2.3290    1.7310    2.7600 hc        1 MOL      0.134288
    160 H70         2.9000    0.6160    1.6390 hc        1 MOL      0.134288
    161 H71         2.2410    1.8750   -0.4340 hc        1 MOL      0.112551
    162 H72         1.7490    3.2170    0.7500 hc        1 MOL      0.112551
    163 N14         5.8690    0.8010    2.3680 n         1 MOL      0.114341
    164 C55         6.8860    0.1460    3.2150 c3        1 MOL     -0.249176
    165 H73         6.8700   -0.9290    3.0350 h1        1 MOL      0.086609
    166 H74         7.8720    0.5400    2.9700 h1        1 MOL      0.086609
    167 H75         6.6660    0.3420    4.2650 h1        1 MOL      0.086609
    168 H76         5.7580    0.4910    1.4070 hn        1 MOL     -0.027263
    169 Ca1        -2.1470   -0.0060   -0.0680 Ca        1 MOL      1.783545
    170 O24        -1.6210    0.5780    2.7100 oh        1 MOL     -0.788597
    171 H77        -0.6930    0.7100    2.5430 ho        1 MOL      0.390077
    172 H78        -1.7000    0.5840    3.6540 ho        1 MOL      0.390077
@<TRIPOS>BOND
     1    1    2 1   
     2    1    4 1   
     3    1    5 1   
     4    1    6 1   
     5    2    3 2   
     6    2    7 1   
     7    7    8 1   
     8    7   15 1   
     9    8    9 1   
    10    8   11 1   
    11    8   16 1   
    12    9   10 2   
    13    9   19 1   
    14   11   12 1   
    15   11   17 1   
    16   11   18 1   
    17   12   13 1   
    18   12   14 1   
    19   19   20 1   
    20   19   24 1   
    21   20   21 1   
    22   20   23 1   
    23   20   25 1   
    24   21   22 2   
    25   21   29 1   
    26   23   26 1   
    27   23   27 1   
    28   23   28 1   
    29   29   30 1   
    30   29   37 1   
    31   30   31 1   
    32   30   33 1   
    33   30   38 1   
    34   31   32 2   
    35   31   41 1   
    36   33   34 1   
    37   33   39 1   
    38   33   40 1   
    39   34   35 1   
    40   34   36 1   
    41   41   42 1   
    42   41   45 1   
    43   42   43 1   
    44   42   46 1   
    45   42   47 1   
    46   43   44 2   
    47   43   48 1   
    48   48   49 1   
    49   48   56 1   
    50   49   50 1   
    51   49   52 1   
    52   49   57 1   
    53   50   51 2   
    54   50   62 1   
    55   52   53 1   
    56   52   58 1   
    57   52   59 1   
    58   53   54 1   
    59   53   55 2   
    60   54   60 1   
    61   54   61 1   
    62   62   63 1   
    63   62   66 1   
    64   63   64 1   
    65   63   67 1   
    66   63   68 1   
    67   64   65 2   
    68   64   69 1   
    69   69   70 1   
    70   69   76 1   
    71   70   71 1   
    72   70   73 1   
    73   70   77 1   
    74   71   72 2   
    75   71   83 1   
    76   73   74 1   
    77   73   75 1   
    78   73   78 1   
    79   74   80 1   
    80   74   81 1   
    81   74   82 1   
    82   75   79 1   
    83   83   84 1   
    84   83   91 1   
    85   84   85 1   
    86   84   87 1   
    87   84   92 1   
    88   85   86 2   
    89   85  102 1   
    90   87   88 1   
    91   87   89 1   
    92   87   93 1   
    93   88   90 1   
    94   88   94 1   
    95   88   95 1   
    96   89   96 1   
    97   89   97 1   
    98   89   98 1   
    99   90   99 1   
   100   90  100 1   
   101   90  101 1   
   102  102  103 1   
   103  102  110 1   
   104  103  104 1   
   105  103  106 1   
   106  103  111 1   
   107  104  105 2   
   108  104  114 1   
   109  106  107 1   
   110  106  112 1   
   111  106  113 1   
   112  107  108 1   
   113  107  109 1   
   114  114  115 1   
   115  114  125 1   
   116  115  116 1   
   117  115  118 1   
   118  115  126 1   
   119  116  117 2   
   120  116  134 1   
   121  118  119 1   
   122  118  127 1   
   123  118  128 1   
   124  119  120 ar  
   125  119  121 ar  
   126  120  122 ar  
   127  120  129 1   
   128  121  123 ar  
   129  121  130 1   
   130  122  124 ar  
   131  122  131 1   
   132  123  124 ar  
   133  123  132 1   
   134  124  133 1   
   135  134  135 1   
   136  134  140 1   
   137  135  136 1   
   138  135  138 1   
   139  135  141 1   
   140  136  137 2   
   141  136  148 1   
   142  138  139 1   
   143  138  142 1   
   144  138  143 1   
   145  139  140 1   
   146  139  144 1   
   147  139  145 1   
   148  140  146 1   
   149  140  147 1   
   150  148  149 1   
   151  148  157 1   
   152  149  150 1   
   153  149  152 1   
   154  149  158 1   
   155  150  151 2   
   156  150  163 1   
   157  152  153 1   
   158  152  159 1   
   159  152  160 1   
   160  153  154 1   
   161  153  161 1   
   162  153  162 1   
   163  154  155 1   
   164  154  156 1   
   165  163  164 1   
   166  163  168 1   
   167  164  165 1   
   168  164  166 1   
   169  164  167 1   
   170  170  171 1   
   171  170  172 1   
@<TRIPOS>SUBSTRUCTURE
     1 MOL         1 TEMP              0 ****  ****    0 ROOT
