@<TRIPOS>MOLECULE
MOL
  186   183     1     0     0
SMALL
resp


@<TRIPOS>ATOM
      1 C1          0.3570   -2.3090    6.3740 c3        1 MOL     -0.358729
      2 C2          0.7040   -2.4700    4.8530 c         1 MOL      0.770550
      3 O1         -0.1720   -2.8270    4.1130 o         1 MOL     -0.550686
      4 H1         -0.4920   -1.6340    6.4840 hc        1 MOL      0.084080
      5 H2          0.1030   -3.2810    6.7940 hc        1 MOL      0.084080
      6 H3          1.2170   -1.8980    6.9020 hc        1 MOL      0.084080
      7 N1          1.9470   -2.1980    4.3830 n         1 MOL     -0.677049
      8 C3          2.4100   -1.9940    3.0340 c3        1 MOL      0.038539
      9 C4          2.7750   -3.3660    2.4420 c         1 MOL      0.655450
     10 O2          3.6510   -4.0340    3.0280 o         1 MOL     -0.640959
     11 C5          3.6200   -0.9590    3.0000 c3        1 MOL     -0.041083
     12 C6          4.2130   -0.6770    1.6640 c         1 MOL      0.667875
     13 O3          5.2810    0.0100    1.5770 o         1 MOL     -0.695993
     14 O4          3.6090   -1.0670    0.6010 o         1 MOL     -0.695993
     15 H4          2.5870   -1.8870    5.1030 hn        1 MOL      0.322030
     16 H5          1.5470   -1.6010    2.4970 h1        1 MOL      0.006979
     17 H6          4.3970   -1.4430    3.5790 hc        1 MOL      0.029551
     18 H7          3.4890   -0.0250    3.5640 hc        1 MOL      0.029551
     19 N2          2.2970   -3.7230    1.2710 n         1 MOL     -0.097328
     20 C7          2.4120   -5.0130    0.6310 c3        1 MOL      0.007935
     21 C8          3.3640   -5.0810   -0.5900 c         1 MOL      0.275239
     22 O5          3.8820   -6.1870   -0.8050 o         1 MOL     -0.537320
     23 C9          0.9740   -5.4380    0.2500 c3        1 MOL      0.346216
     24 C10         0.0660   -5.3870    1.4800 c3        1 MOL     -0.023574
     25 C11         0.9750   -6.8540   -0.3840 c3        1 MOL     -0.389644
     26 C12         0.3820   -6.2800    2.6590 c3        1 MOL     -0.420670
     27 H8          1.7370   -3.0940    0.7150 hn        1 MOL      0.054504
     28 H9          2.7600   -5.7660    1.3370 h1        1 MOL      0.054113
     29 H10         0.5820   -4.8560   -0.5870 hc        1 MOL     -0.013088
     30 H11        -0.9490   -5.6530    1.1740 hc        1 MOL      0.056504
     31 H12         0.0040   -4.3660    1.8600 hc        1 MOL      0.056504
     32 H13        -0.0690   -7.1670   -0.4640 hc        1 MOL      0.075764
     33 H14         1.3890   -6.8010   -1.3880 hc        1 MOL      0.075764
     34 H15         1.6040   -7.4530    0.2660 hc        1 MOL      0.075764
     35 H16         0.6180   -7.2750    2.2700 hc        1 MOL      0.092328
     36 H17         1.2500   -5.9410    3.2170 hc        1 MOL      0.092328
     37 H18        -0.3570   -6.2850    3.4670 hc        1 MOL      0.092328
     38 N3          3.6020   -3.9890   -1.3320 n         1 MOL     -0.080329
     39 C13         4.5850   -3.9440   -2.4940 c3        1 MOL      0.037351
     40 C14         5.8820   -3.2500   -2.0370 c         1 MOL      0.412154
     41 O6          6.9270   -3.3760   -2.6520 o         1 MOL     -0.547634
     42 C15         4.0810   -3.2070   -3.7720 c3        1 MOL     -0.013864
     43 C16         3.9160   -1.7060   -3.6440 c         1 MOL      0.679457
     44 O7          3.9120   -1.0230   -4.6940 o         1 MOL     -0.701699
     45 O8          4.0000   -1.1910   -2.5100 o         1 MOL     -0.701699
     46 H19         3.1360   -3.1310   -1.0500 hn        1 MOL      0.088753
     47 H20         4.7790   -4.9770   -2.7980 h1        1 MOL      0.060201
     48 H21         3.1120   -3.6780   -3.9540 hc        1 MOL     -0.004533
     49 H22         4.7130   -3.5100   -4.5990 hc        1 MOL     -0.004533
     50 N4          5.8860   -2.7060   -0.8200 n         1 MOL     -0.080676
     51 C17         6.9560   -2.2380    0.0180 c3        1 MOL     -0.147695
     52 C18         7.6010   -0.9970   -0.5160 c         1 MOL      0.539458
     53 O9          8.8580   -0.9140   -0.5900 o         1 MOL     -0.619888
     54 H23         4.9720   -2.7100   -0.3780 hn        1 MOL      0.084126
     55 H24         7.7520   -2.9790    0.0840 h1        1 MOL      0.075137
     56 H25         6.6530   -1.9760    1.0280 h1        1 MOL      0.075137
     57 N5          6.8530    0.0400   -0.9240 n         1 MOL     -0.199768
     58 C19         7.3770    1.2820   -1.4950 c3        1 MOL     -0.036352
     59 C20         7.4840    2.4000   -0.4650 c         1 MOL      0.414999
     60 O10         8.0690    3.4070   -0.8000 o         1 MOL     -0.549218
     61 C21         6.6040    1.7320   -2.7360 c3        1 MOL     -0.302472
     62 C22         5.1870    2.0860   -2.4900 c         1 MOL      0.773881
     63 O11         4.6960    2.8300   -3.3730 o         1 MOL     -0.725554
     64 O12         4.4840    1.7080   -1.5010 o         1 MOL     -0.725554
     65 H26         5.8460   -0.0010   -0.8040 hn        1 MOL      0.202118
     66 H27         8.4270    1.1510   -1.7240 h1        1 MOL      0.090219
     67 H28         6.6140    0.8680   -3.4070 hc        1 MOL      0.112929
     68 H29         7.1110    2.5540   -3.2450 hc        1 MOL      0.112929
     69 N6          6.8750    2.2820    0.7130 n         1 MOL     -0.148820
     70 C23         6.7530    3.2980    1.8020 c3        1 MOL     -0.266760
     71 C24         5.4770    4.0890    1.9330 c         1 MOL      0.581247
     72 O13         5.4160    5.0930    2.6670 o         1 MOL     -0.612665
     73 H30         6.5360    1.3550    0.9300 hn        1 MOL      0.175706
     74 H31         7.5310    4.0230    1.5560 h1        1 MOL      0.111802
     75 H32         6.8650    2.7690    2.7520 h1        1 MOL      0.111802
     76 N7          4.4200    3.6390    1.2860 n         1 MOL     -0.250806
     77 C25         3.0360    4.1710    1.2930 c3        1 MOL      0.023142
     78 C26         1.9570    3.0860    1.1100 c         1 MOL      0.541269
     79 O14         2.2770    1.9630    0.6990 o         1 MOL     -0.569095
     80 C27         2.8610    5.3290    0.2660 c3        1 MOL      0.089728
     81 C28         3.8140    6.5510    0.4820 c3        1 MOL     -0.325010
     82 C29         3.2930    7.6860   -0.3740 c         1 MOL      0.703926
     83 N8          3.4770    7.6980   -1.6640 n         1 MOL     -0.848005
     84 O15         2.7450    8.6380    0.1630 o         1 MOL     -0.599562
     85 H33         4.5870    2.7750    0.7730 hn        1 MOL      0.234097
     86 H34         2.8700    4.6650    2.2580 h1        1 MOL      0.036382
     87 H35         1.8050    5.5830    0.3820 hc        1 MOL     -0.004247
     88 H36         3.0070    4.7500   -0.6460 hc        1 MOL     -0.004247
     89 H37         4.7900    6.2160    0.1540 hc        1 MOL      0.116817
     90 H38         3.8380    6.8510    1.5310 hc        1 MOL      0.116817
     91 H39         4.0170    6.9610   -2.0910 hn        1 MOL      0.380965
     92 H40         3.2010    8.4870   -2.2290 hn        1 MOL      0.380965
     93 N9          0.6990    3.3270    1.5730 n         1 MOL     -0.511401
     94 C30        -0.3630    2.3160    1.8870 c3        1 MOL     -0.087025
     95 C31        -1.5670    2.7510    1.0700 c         1 MOL      0.420308
     96 O16        -2.2710    3.7610    1.2990 o         1 MOL     -0.513215
     97 C32        -0.5660    2.1950    3.4440 c3        1 MOL      0.268472
     98 C33        -1.9060    1.5190    3.8740 c3        1 MOL     -0.299877
     99 C34         0.5900    1.5600    4.1040 c3        1 MOL     -0.299877
    100 H41         0.5290    4.2850    1.8290 hn        1 MOL      0.317962
    101 H42         0.0450    1.3990    1.4540 h1        1 MOL      0.153507
    102 H43        -0.5090    3.1760    3.9150 hc        1 MOL     -0.006880
    103 H44        -2.6630    2.3080    3.8290 hc        1 MOL      0.064553
    104 H45        -2.1710    0.6260    3.3110 hc        1 MOL      0.064553
    105 H46        -1.8370    1.2060    4.9190 hc        1 MOL      0.064553
    106 H47         0.7170    0.5390    3.7220 hc        1 MOL      0.064553
    107 H48         1.4370    2.0410    3.6180 hc        1 MOL      0.064553
    108 H49         0.5400    1.5930    5.1920 hc        1 MOL      0.064553
    109 N10        -1.6650    2.0220   -0.0700 n         1 MOL     -0.208336
    110 C35        -2.8510    2.0400   -0.9230 c3        1 MOL     -0.093760
    111 C36        -4.0950    1.8000   -0.0460 c         1 MOL      0.479559
    112 O17        -4.1390    1.1510    0.9790 o         1 MOL     -0.320924
    113 C37        -2.5610    1.0630   -2.1070 c3        1 MOL     -0.258881
    114 C38        -3.6790    0.8160   -3.0770 c         1 MOL      0.624665
    115 N11        -3.4430   -0.0490   -4.0640 n         1 MOL     -0.787133
    116 O18        -4.7410    1.4030   -3.0500 o         1 MOL     -0.558056
    117 H50        -0.9990    1.3530   -0.4160 hn        1 MOL      0.205767
    118 H51        -2.9190    3.0230   -1.3950 h1        1 MOL      0.090264
    119 H52        -2.2950    0.1070   -1.6460 hc        1 MOL      0.137827
    120 H53        -1.7260    1.4490   -2.6950 hc        1 MOL      0.137827
    121 H54        -2.5500   -0.5150   -4.1290 hn        1 MOL      0.383928
    122 H55        -4.2380   -0.2730   -4.6520 hn        1 MOL      0.383928
    123 N12        -5.2410    2.3930   -0.5000 n         1 MOL     -0.630175
    124 C39        -6.5860    1.9560   -0.0040 c3        1 MOL      0.353488
    125 C40        -6.7010    0.3910   -0.0060 c         1 MOL      0.545735
    126 O19        -7.1260   -0.1420    1.0360 o         1 MOL     -0.571982
    127 C41        -7.7100    2.6580   -0.8770 c3        1 MOL     -0.178463
    128 C42        -9.1520    2.4020   -0.5160 ca        1 MOL      0.006225
    129 C43        -9.5580    2.4390    0.8320 ca        1 MOL     -0.142493
    130 C44       -10.1520    2.1210   -1.4850 ca        1 MOL     -0.142493
    131 C45       -10.8960    2.2850    1.2820 ca        1 MOL     -0.293078
    132 C46       -11.4420    1.8270   -1.0750 ca        1 MOL     -0.293078
    133 C47       -11.8200    1.8790    0.2730 ca        1 MOL      0.418994
    134 O20       -13.1060    1.7080    0.5300 oh        1 MOL     -0.540863
    135 H56        -5.2130    3.0830   -1.2340 hn        1 MOL      0.324192
    136 H57        -6.7490    2.2200    1.0350 h1        1 MOL      0.000356
    137 H58        -7.5480    2.2160   -1.8540 hc        1 MOL      0.061952
    138 H59        -7.4360    3.7090   -0.9340 hc        1 MOL      0.061952
    139 H60        -8.7070    2.6180    1.4750 ha        1 MOL      0.131754
    140 H61        -9.8610    2.0220   -2.5190 ha        1 MOL      0.131754
    141 H62       -11.1760    2.4090    2.3250 ha        1 MOL      0.148741
    142 H63       -12.1690    1.6100   -1.8360 ha        1 MOL      0.148741
    143 H64       -13.7800    1.7450   -0.1580 ho        1 MOL      0.374873
    144 N13        -6.2850   -0.3200   -1.0050 n         1 MOL     -0.386949
    145 C48        -6.2470   -1.8160   -1.0530 c3        1 MOL     -0.060515
    146 C49        -5.2900   -2.3600    0.0500 c         1 MOL      0.264916
    147 O21        -5.3890   -3.5890    0.2470 o         1 MOL     -0.515360
    148 C50        -5.7620   -2.2690   -2.4460 c3        1 MOL      0.158279
    149 C51        -6.4830   -1.5660   -3.6140 c3        1 MOL     -0.223174
    150 C52        -6.3320   -2.3460   -4.9080 c         1 MOL      0.720824
    151 O22        -5.3970   -2.0900   -5.7090 o         1 MOL     -0.727415
    152 O23        -7.2140   -3.2280   -5.1380 o         1 MOL     -0.727415
    153 H65        -5.9080    0.2460   -1.7520 hn        1 MOL      0.279398
    154 H66        -7.2440   -2.2240   -0.9000 h1        1 MOL      0.134453
    155 H67        -5.8810   -3.3570   -2.5240 hc        1 MOL     -0.005917
    156 H68        -4.7170   -2.0390   -2.6110 hc        1 MOL     -0.005917
    157 H69        -5.9970   -0.5920   -3.7070 hc        1 MOL     -0.001589
    158 H70        -7.5130   -1.3700   -3.3160 hc        1 MOL     -0.001589
    159 N14        -4.3790   -1.5830    0.6710 n         1 MOL      0.145546
    160 C53        -3.4880   -2.1000    1.6650 c3        1 MOL     -0.080453
    161 C54        -4.0230   -1.8470    3.0850 c         1 MOL      0.364846
    162 O24        -3.9070   -2.6450    4.0100 o         1 MOL     -0.548700
    163 C55        -2.0450   -1.5630    1.3630 c3        1 MOL      0.051034
    164 C56        -1.4950   -2.2050    0.1090 c3        1 MOL      0.006448
    165 C57        -0.1970   -1.5050   -0.3160 c         1 MOL      0.696043
    166 O25         0.7960   -2.2000   -0.6460 o         1 MOL     -0.735694
    167 O26        -0.0300   -0.2480   -0.3610 o         1 MOL     -0.735694
    168 H71        -4.4430   -0.5810    0.5330 hn        1 MOL      0.041251
    169 H72        -3.4390   -3.1830    1.5900 h1        1 MOL      0.081544
    170 H73        -1.3180   -1.8130    2.1470 hc        1 MOL      0.021872
    171 H74        -2.2870   -0.5050    1.2390 hc        1 MOL      0.021872
    172 H75        -2.2620   -1.9200   -0.6130 hc        1 MOL     -0.063562
    173 H76        -1.4160   -3.2950    0.1890 hc        1 MOL     -0.063562
    174 N15        -4.7800   -0.7760    3.2280 n         1 MOL      0.113565
    175 C58        -5.5820   -0.3970    4.3540 c3        1 MOL     -0.374875
    176 H77        -6.1730    0.4820    4.0970 h1        1 MOL      0.114239
    177 H78        -6.2480   -1.2180    4.6190 h1        1 MOL      0.114239
    178 H79        -4.9350   -0.1650    5.2000 h1        1 MOL      0.114239
    179 H80        -5.0010   -0.2490    2.3920 hn        1 MOL     -0.027957
    180 Ca1         2.3400    0.2410   -1.1910 Ca        1 MOL      1.747243
    181 O27         1.3700    0.1280   -3.8340 oh        1 MOL     -0.894827
    182 H81         2.2440    0.0890   -4.2290 ho        1 MOL      0.410819
    183 H82         0.7720    0.0620   -4.5810 ho        1 MOL      0.410819
    184 O28         2.1390    2.6630   -2.2380 oh        1 MOL     -0.894827
    185 H83         3.0690    2.8990   -2.2600 ho        1 MOL      0.410819
    186 H84         1.8380    2.8200   -3.1400 ho        1 MOL      0.410819
@<TRIPOS>BOND
     1    1    2 1   
     2    1    4 1   
     3    1    5 1   
     4    1    6 1   
     5    2    3 2   
     6    2    7 1   
     7    7    8 1   
     8    7   15 1   
     9    8    9 1   
    10    8   11 1   
    11    8   16 1   
    12    9   10 2   
    13    9   19 1   
    14   11   12 1   
    15   11   17 1   
    16   11   18 1   
    17   12   13 1   
    18   12   14 1   
    19   19   20 1   
    20   19   27 1   
    21   20   21 1   
    22   20   23 1   
    23   20   28 1   
    24   21   22 2   
    25   21   38 1   
    26   23   24 1   
    27   23   25 1   
    28   23   29 1   
    29   24   26 1   
    30   24   30 1   
    31   24   31 1   
    32   25   32 1   
    33   25   33 1   
    34   25   34 1   
    35   26   35 1   
    36   26   36 1   
    37   26   37 1   
    38   38   39 1   
    39   38   46 1   
    40   39   40 1   
    41   39   42 1   
    42   39   47 1   
    43   40   41 2   
    44   40   50 1   
    45   42   43 1   
    46   42   48 1   
    47   42   49 1   
    48   43   44 1   
    49   43   45 1   
    50   50   51 1   
    51   50   54 1   
    52   51   52 1   
    53   51   55 1   
    54   51   56 1   
    55   52   53 2   
    56   52   57 1   
    57   57   58 1   
    58   57   65 1   
    59   58   59 1   
    60   58   61 1   
    61   58   66 1   
    62   59   60 2   
    63   59   69 1   
    64   61   62 1   
    65   61   67 1   
    66   61   68 1   
    67   62   63 1   
    68   62   64 1   
    69   69   70 1   
    70   69   73 1   
    71   70   71 1   
    72   70   74 1   
    73   70   75 1   
    74   71   72 2   
    75   71   76 1   
    76   76   77 1   
    77   76   85 1   
    78   77   78 1   
    79   77   80 1   
    80   77   86 1   
    81   78   79 2   
    82   78   93 1   
    83   80   81 1   
    84   80   87 1   
    85   80   88 1   
    86   81   82 1   
    87   81   89 1   
    88   81   90 1   
    89   82   83 1   
    90   82   84 2   
    91   83   91 1   
    92   83   92 1   
    93   93   94 1   
    94   93  100 1   
    95   94   95 1   
    96   94   97 1   
    97   94  101 1   
    98   95   96 2   
    99   95  109 1   
   100   97   98 1   
   101   97   99 1   
   102   97  102 1   
   103   98  103 1   
   104   98  104 1   
   105   98  105 1   
   106   99  106 1   
   107   99  107 1   
   108   99  108 1   
   109  109  110 1   
   110  109  117 1   
   111  110  111 1   
   112  110  113 1   
   113  110  118 1   
   114  111  112 2   
   115  111  123 1   
   116  113  114 1   
   117  113  119 1   
   118  113  120 1   
   119  114  115 1   
   120  114  116 2   
   121  115  121 1   
   122  115  122 1   
   123  123  124 1   
   124  123  135 1   
   125  124  125 1   
   126  124  127 1   
   127  124  136 1   
   128  125  126 2   
   129  125  144 1   
   130  127  128 1   
   131  127  137 1   
   132  127  138 1   
   133  128  129 ar  
   134  128  130 ar  
   135  129  131 ar  
   136  129  139 1   
   137  130  132 ar  
   138  130  140 1   
   139  131  133 ar  
   140  131  141 1   
   141  132  133 ar  
   142  132  142 1   
   143  133  134 1   
   144  134  143 1   
   145  144  145 1   
   146  144  153 1   
   147  145  146 1   
   148  145  148 1   
   149  145  154 1   
   150  146  147 2   
   151  146  159 1   
   152  148  149 1   
   153  148  155 1   
   154  148  156 1   
   155  149  150 1   
   156  149  157 1   
   157  149  158 1   
   158  150  151 1   
   159  150  152 1   
   160  159  160 1   
   161  159  168 1   
   162  160  161 1   
   163  160  163 1   
   164  160  169 1   
   165  161  162 2   
   166  161  174 1   
   167  163  164 1   
   168  163  170 1   
   169  163  171 1   
   170  164  165 1   
   171  164  172 1   
   172  164  173 1   
   173  165  166 1   
   174  165  167 1   
   175  174  175 1   
   176  174  179 1   
   177  175  176 1   
   178  175  177 1   
   179  175  178 1   
   180  181  182 1   
   181  181  183 1   
   182  184  185 1   
   183  184  186 1   
@<TRIPOS>SUBSTRUCTURE
     1 MOL         1 TEMP              0 ****  ****    0 ROOT
