@<TRIPOS>MOLECULE
MOL
  175   173     1     0     0
SMALL
resp


@<TRIPOS>ATOM
      1 C1          0.6110    3.8670    5.5930 c3        1 MOL     -0.264790
      2 C2         -0.0400    3.8090    4.2380 c         1 MOL      0.718719
      3 O1          0.6430    3.8890    3.1780 o         1 MOL     -0.583027
      4 H1          0.0230    3.2850    6.3020 hc        1 MOL      0.061054
      5 H2          1.6180    3.4540    5.5300 hc        1 MOL      0.061054
      6 H3          0.6620    4.9030    5.9280 hc        1 MOL      0.061054
      7 N1         -1.3520    3.5200    4.1970 n         1 MOL     -0.744786
      8 C3         -2.0500    3.3520    2.8910 c3        1 MOL      0.434065
      9 C4         -2.0650    4.5960    1.9900 c         1 MOL      0.453781
     10 O2         -2.6700    5.5730    2.4600 o         1 MOL     -0.578404
     11 C5         -3.4740    2.8620    3.0870 c3        1 MOL     -0.440223
     12 C6         -4.1150    2.4770    1.7130 c         1 MOL      0.821431
     13 O3         -5.3090    2.7580    1.6910 o         1 MOL     -0.668162
     14 O4         -3.5120    2.0110    0.7110 o         1 MOL     -0.668162
     15 H4         -1.8280    3.4380    5.0870 hn        1 MOL      0.350230
     16 H5         -1.5420    2.5410    2.3500 h1        1 MOL      0.004866
     17 H6         -4.0800    3.6630    3.4950 hc        1 MOL      0.076483
     18 H7         -3.4660    2.0150    3.7700 hc        1 MOL      0.076483
     19 N2         -1.6330    4.4500    0.7380 n         1 MOL     -0.380270
     20 C7         -1.7840    5.4630   -0.2930 c3        1 MOL      0.213976
     21 C8         -2.6850    5.0930   -1.5030 c         1 MOL      0.452526
     22 O5         -2.7610    5.8860   -2.5100 o         1 MOL     -0.565895
     23 C9         -0.3660    5.9910   -0.7290 c3        1 MOL     -0.033350
     24 H8         -1.1250    3.5870    0.5670 hn        1 MOL      0.263051
     25 H9         -2.2140    6.3850    0.1120 h1        1 MOL      0.026063
     26 H10        -0.5560    6.8090   -1.4140 hc        1 MOL     -0.000712
     27 H11         0.1670    6.3890    0.1400 hc        1 MOL     -0.000712
     28 H12         0.2810    5.2570   -1.2090 hc        1 MOL     -0.000712
     29 N3         -3.4640    3.9410   -1.5000 n         1 MOL     -0.445520
     30 C10        -4.3230    3.6080   -2.7440 c3        1 MOL      0.250171
     31 C11        -5.7010    2.9900   -2.3990 c         1 MOL      0.197948
     32 O6         -6.6090    2.9770   -3.2960 o         1 MOL     -0.547610
     33 C12        -3.6300    2.5480   -3.6020 c3        1 MOL     -0.258005
     34 C13        -3.1070    1.3980   -2.7920 c         1 MOL      0.712112
     35 O7         -3.8700    0.7390   -2.0600 o         1 MOL     -0.693169
     36 O8         -1.8930    1.2370   -2.6690 o         1 MOL     -0.693169
     37 H13        -3.3540    3.3280   -0.7110 hn        1 MOL      0.245426
     38 H14        -4.4390    4.5200   -3.3240 h1        1 MOL      0.067189
     39 H15        -2.8140    3.0610   -4.1060 hc        1 MOL      0.065350
     40 H16        -4.3320    2.1670   -4.3480 hc        1 MOL      0.065350
     41 N4         -5.9200    2.3290   -1.2660 n         1 MOL      0.063689
     42 C14        -7.1350    1.6890   -0.8140 c3        1 MOL     -0.083858
     43 C15        -7.3980    0.2340   -1.2980 c         1 MOL      0.461614
     44 O9         -8.5450   -0.1140   -1.4960 o         1 MOL     -0.586669
     45 H17        -5.1820    2.2950   -0.5830 hn        1 MOL      0.001819
     46 H18        -7.9590    2.3560   -1.0630 h1        1 MOL      0.063098
     47 H19        -7.0990    1.6450    0.2660 h1        1 MOL      0.063098
     48 N5         -6.3190   -0.5490   -1.5220 n         1 MOL     -0.175713
     49 C16        -6.3250   -1.8490   -2.1290 c3        1 MOL     -0.058596
     50 C17        -6.3320   -3.0240   -1.0760 c         1 MOL      0.433341
     51 O10        -6.3490   -4.1800   -1.4130 o         1 MOL     -0.530132
     52 C18        -5.1660   -1.9950   -3.1410 c3        1 MOL     -0.004243
     53 C19        -3.8440   -2.3550   -2.5150 c         1 MOL      0.459387
     54 N6         -2.8310   -2.6650   -3.2910 n         1 MOL     -0.547090
     55 O11        -3.5800   -2.1950   -1.3070 o         1 MOL     -0.507903
     56 H20        -5.4540   -0.0280   -1.5460 hn        1 MOL      0.211818
     57 H21        -7.3050   -1.9570   -2.5960 h1        1 MOL      0.102053
     58 H22        -5.0960   -1.1630   -3.8470 hc        1 MOL      0.030906
     59 H23        -5.5180   -2.8190   -3.7660 hc        1 MOL      0.030906
     60 H24        -2.9640   -2.7120   -4.2870 hn        1 MOL      0.309658
     61 H25        -1.8900   -2.7520   -2.9120 hn        1 MOL      0.309658
     62 N7         -6.4360   -2.7330    0.2010 n         1 MOL     -0.203734
     63 C20        -6.4560   -3.6690    1.2990 c3        1 MOL     -0.406174
     64 C21        -5.1270   -4.2710    1.7590 c         1 MOL      0.493962
     65 O12        -5.1210   -5.1200    2.6430 o         1 MOL     -0.561167
     66 H26        -6.5340   -1.7470    0.3940 hn        1 MOL      0.213175
     67 H27        -7.1100   -4.4860    1.0250 h1        1 MOL      0.168750
     68 H28        -6.7870   -3.1610    2.2020 h1        1 MOL      0.168750
     69 N8         -4.0150   -3.8690    1.1500 n         1 MOL     -0.060876
     70 C22        -2.6440   -4.4680    1.3720 c3        1 MOL     -0.331196
     71 C23        -1.5400   -3.3960    1.5910 c         1 MOL      0.405762
     72 O13        -1.7110   -2.3130    1.1270 o         1 MOL     -0.490644
     73 C24        -2.1670   -5.4680    0.3130 c3        1 MOL      0.658836
     74 C25        -3.1820   -6.5290    0.0040 c3        1 MOL     -0.499613
     75 O14        -2.1040   -4.7720   -0.8860 oh        1 MOL     -0.616937
     76 H29        -4.0380   -3.0910    0.5010 hn        1 MOL      0.229025
     77 H30        -2.6910   -5.0480    2.2880 h1        1 MOL      0.075144
     78 H31        -1.2180   -5.9290    0.5790 h1        1 MOL     -0.048312
     79 H32        -2.5520   -3.9220   -0.8410 ho        1 MOL      0.282968
     80 H33        -4.0480   -6.1490   -0.5410 hc        1 MOL      0.112417
     81 H34        -2.7090   -7.2920   -0.6080 hc        1 MOL      0.112417
     82 H35        -3.5300   -6.9930    0.9340 hc        1 MOL      0.112417
     83 N9         -0.3790   -3.7840    2.0960 n         1 MOL     -0.254292
     84 C26         0.8310   -2.9620    2.0490 c3        1 MOL     -0.017689
     85 C27         1.5470   -3.1460    0.7550 c         1 MOL      0.449936
     86 O15         2.0800   -4.2030    0.5140 o         1 MOL     -0.561357
     87 C28         1.6750   -3.1460    3.2480 c3        1 MOL      0.141116
     88 C29         0.9260   -2.4860    4.4980 c3        1 MOL      0.002767
     89 C30         3.1620   -2.7760    3.2320 c3        1 MOL     -0.102902
     90 C31         1.5460   -2.7060    5.8730 c3        1 MOL     -0.139498
     91 H36        -0.2940   -4.6800    2.5530 hn        1 MOL      0.241916
     92 H37         0.5110   -1.9240    2.0390 h1        1 MOL     -0.002935
     93 H38         1.6030   -4.2180    3.3840 hc        1 MOL     -0.031562
     94 H39        -0.0730   -2.9300    4.5730 hc        1 MOL      0.006060
     95 H40         0.9270   -1.4150    4.2940 hc        1 MOL      0.006060
     96 H41         3.6490   -2.8570    4.2080 hc        1 MOL      0.025621
     97 H42         3.7960   -3.4350    2.6450 hc        1 MOL      0.025621
     98 H43         3.2780   -1.7450    2.8970 hc        1 MOL      0.025621
     99 H44         0.8050   -2.5180    6.6500 hc        1 MOL      0.026998
    100 H45         1.8390   -3.7300    6.0920 hc        1 MOL      0.026998
    101 H46         2.4500   -2.0910    5.9500 hc        1 MOL      0.026998
    102 N10         1.5790   -2.1050   -0.0930 n         1 MOL     -0.211503
    103 C32         2.4790   -1.9930   -1.2580 c3        1 MOL     -0.032128
    104 C33         3.9230   -1.5770   -0.8620 c         1 MOL      0.542287
    105 O16         4.2060   -0.9780    0.2150 o         1 MOL     -0.428988
    106 C34         1.8210   -1.1180   -2.3320 c3        1 MOL     -0.106974
    107 C35         0.4250   -1.6710   -2.5300 c         1 MOL      0.671002
    108 O17        -0.5110   -1.2460   -1.8190 o         1 MOL     -0.667498
    109 O18         0.2330   -2.2030   -3.6630 o         1 MOL     -0.667498
    110 H47         1.0500   -1.2680    0.1040 hn        1 MOL      0.170216
    111 H48         2.5430   -2.9790   -1.7160 h1        1 MOL      0.051384
    112 H49         2.5070   -1.1690   -3.1780 hc        1 MOL      0.040421
    113 H50         1.7990   -0.0830   -1.9870 hc        1 MOL      0.040421
    114 N11         4.9070   -1.8150   -1.7270 n         1 MOL     -0.634765
    115 C36         6.3590   -1.5460   -1.3900 c3        1 MOL      0.221513
    116 C37         6.6130    0.0070   -1.2040 c         1 MOL      0.409638
    117 O19         7.2360    0.3850   -0.2140 o         1 MOL     -0.510354
    118 C38         7.3230   -2.1520   -2.4520 c3        1 MOL     -0.083032
    119 C39         8.7890   -1.9660   -2.1190 ca        1 MOL      0.121307
    120 C40         9.4830   -0.9900   -2.8180 ca        1 MOL     -0.264727
    121 C41         9.2840   -2.5320   -0.9920 ca        1 MOL     -0.264727
    122 C42        10.7460   -0.6130   -2.3540 ca        1 MOL     -0.001494
    123 C43        10.5990   -2.1490   -0.5020 ca        1 MOL     -0.001494
    124 C44        11.3180   -1.1750   -1.2180 ca        1 MOL     -0.200354
    125 H51         4.6950   -2.2170   -2.6330 hn        1 MOL      0.331949
    126 H52         6.6140   -2.0140   -0.4350 h1        1 MOL      0.082904
    127 H53         7.1040   -1.7550   -3.4390 hc        1 MOL      0.032427
    128 H54         7.0780   -3.2110   -2.5770 hc        1 MOL      0.032427
    129 H55         9.0670   -0.4250   -3.6340 ha        1 MOL      0.146746
    130 H56         8.6600   -3.1840   -0.4060 ha        1 MOL      0.146746
    131 H57        11.3570    0.0160   -2.9830 ha        1 MOL      0.084523
    132 H58        10.9830   -2.5800    0.4100 ha        1 MOL      0.084523
    133 H59        12.2900   -0.9140   -0.8240 ha        1 MOL      0.120741
    134 N12         6.0550    0.9760   -1.9590 n         1 MOL     -0.039734
    135 C45         6.1160    2.3970   -1.6100 c3        1 MOL     -0.003934
    136 C46         5.4970    2.7980   -0.3320 c         1 MOL      0.229264
    137 O20         5.6670    3.9410    0.1920 o         1 MOL     -0.490178
    138 C47         5.2880    2.9980   -2.7710 c3        1 MOL     -0.035848
    139 C48         5.6590    2.2110   -4.0100 c3        1 MOL     -0.017220
    140 C49         5.6420    0.8010   -3.3460 c3        1 MOL     -0.103131
    141 H60         7.1400    2.7500   -1.7780 h1        1 MOL      0.071453
    142 H61         4.2160    2.8720   -2.5640 hc        1 MOL      0.047360
    143 H62         5.4540    4.0630   -2.8970 hc        1 MOL      0.047360
    144 H63         4.9010    2.3110   -4.7920 hc        1 MOL      0.029610
    145 H64         6.6340    2.4740   -4.4320 hc        1 MOL      0.029610
    146 H65         4.5970    0.4940   -3.3080 h1        1 MOL      0.041034
    147 H66         6.3840    0.1620   -3.8390 h1        1 MOL      0.041034
    148 N13         4.5990    1.9590    0.2630 n         1 MOL     -0.013789
    149 C50         3.9900    2.1220    1.5870 c3        1 MOL     -0.030194
    150 C51         4.7810    1.4180    2.7080 c         1 MOL      0.393212
    151 O21         5.0790    2.0340    3.7570 o         1 MOL     -0.565193
    152 C52         2.6000    1.4850    1.5160 c3        1 MOL     -0.019872
    153 C53         1.7310    2.1080    0.4930 c3        1 MOL     -0.225256
    154 C54         0.4580    1.3410    0.3860 c         1 MOL      0.601066
    155 O22        -0.4360    2.0640   -0.0790 o         1 MOL     -0.614229
    156 O23         0.2720    0.1880    0.7970 o         1 MOL     -0.614229
    157 H67         4.1340    1.2260   -0.2580 hn        1 MOL      0.151016
    158 H68         3.8220    3.1940    1.7180 h1        1 MOL      0.085321
    159 H69         2.1210    1.6430    2.4820 hc        1 MOL      0.028975
    160 H70         2.7970    0.4190    1.3790 hc        1 MOL      0.028975
    161 H71         2.2070    2.0650   -0.4860 hc        1 MOL      0.083160
    162 H72         1.4390    3.0990    0.8570 hc        1 MOL      0.083160
    163 N14         5.5290    0.3920    2.3710 n         1 MOL      0.029674
    164 C55         6.4730   -0.2520    3.3410 c3        1 MOL     -0.314315
    165 H73         5.9280   -0.5420    4.2400 h1        1 MOL      0.105365
    166 H74         6.9160   -1.1370    2.8830 h1        1 MOL      0.105365
    167 H75         7.2600    0.4530    3.6050 h1        1 MOL      0.105365
    168 H76         5.3810   -0.0570    1.4800 hn        1 MOL      0.042120
    169 Ca1        -2.2090   -0.1230   -0.2300 Ca        1 MOL      1.689428
    170 O24        -1.9380    0.0450    2.5420 oh        1 MOL     -0.851901
    171 H77        -0.9910   -0.0520    2.5180 ho        1 MOL      0.399341
    172 H78        -2.1400    0.3380    3.4250 ho        1 MOL      0.399341
    173 O25        -4.3670   -0.7620    1.4190 oh        1 MOL     -0.851901
    174 H79        -5.2500   -0.5690    1.7480 ho        1 MOL      0.399341
    175 H80        -3.8470   -0.8650    2.2150 ho        1 MOL      0.399341
@<TRIPOS>BOND
     1    1    2 1   
     2    1    4 1   
     3    1    5 1   
     4    1    6 1   
     5    2    3 2   
     6    2    7 1   
     7    7    8 1   
     8    7   15 1   
     9    8    9 1   
    10    8   11 1   
    11    8   16 1   
    12    9   10 2   
    13    9   19 1   
    14   11   12 1   
    15   11   17 1   
    16   11   18 1   
    17   12   13 1   
    18   12   14 1   
    19   19   20 1   
    20   19   24 1   
    21   20   21 1   
    22   20   23 1   
    23   20   25 1   
    24   21   22 2   
    25   21   29 1   
    26   23   26 1   
    27   23   27 1   
    28   23   28 1   
    29   29   30 1   
    30   29   37 1   
    31   30   31 1   
    32   30   33 1   
    33   30   38 1   
    34   31   32 2   
    35   31   41 1   
    36   33   34 1   
    37   33   39 1   
    38   33   40 1   
    39   34   35 1   
    40   34   36 1   
    41   41   42 1   
    42   41   45 1   
    43   42   43 1   
    44   42   46 1   
    45   42   47 1   
    46   43   44 2   
    47   43   48 1   
    48   48   49 1   
    49   48   56 1   
    50   49   50 1   
    51   49   52 1   
    52   49   57 1   
    53   50   51 2   
    54   50   62 1   
    55   52   53 1   
    56   52   58 1   
    57   52   59 1   
    58   53   54 1   
    59   53   55 2   
    60   54   60 1   
    61   54   61 1   
    62   62   63 1   
    63   62   66 1   
    64   63   64 1   
    65   63   67 1   
    66   63   68 1   
    67   64   65 2   
    68   64   69 1   
    69   69   70 1   
    70   69   76 1   
    71   70   71 1   
    72   70   73 1   
    73   70   77 1   
    74   71   72 2   
    75   71   83 1   
    76   73   74 1   
    77   73   75 1   
    78   73   78 1   
    79   74   80 1   
    80   74   81 1   
    81   74   82 1   
    82   75   79 1   
    83   83   84 1   
    84   83   91 1   
    85   84   85 1   
    86   84   87 1   
    87   84   92 1   
    88   85   86 2   
    89   85  102 1   
    90   87   88 1   
    91   87   89 1   
    92   87   93 1   
    93   88   90 1   
    94   88   94 1   
    95   88   95 1   
    96   89   96 1   
    97   89   97 1   
    98   89   98 1   
    99   90   99 1   
   100   90  100 1   
   101   90  101 1   
   102  102  103 1   
   103  102  110 1   
   104  103  104 1   
   105  103  106 1   
   106  103  111 1   
   107  104  105 2   
   108  104  114 1   
   109  106  107 1   
   110  106  112 1   
   111  106  113 1   
   112  107  108 1   
   113  107  109 1   
   114  114  115 1   
   115  114  125 1   
   116  115  116 1   
   117  115  118 1   
   118  115  126 1   
   119  116  117 2   
   120  116  134 1   
   121  118  119 1   
   122  118  127 1   
   123  118  128 1   
   124  119  120 ar  
   125  119  121 ar  
   126  120  122 ar  
   127  120  129 1   
   128  121  123 ar  
   129  121  130 1   
   130  122  124 ar  
   131  122  131 1   
   132  123  124 ar  
   133  123  132 1   
   134  124  133 1   
   135  134  135 1   
   136  134  140 1   
   137  135  136 1   
   138  135  138 1   
   139  135  141 1   
   140  136  137 2   
   141  136  148 1   
   142  138  139 1   
   143  138  142 1   
   144  138  143 1   
   145  139  140 1   
   146  139  144 1   
   147  139  145 1   
   148  140  146 1   
   149  140  147 1   
   150  148  149 1   
   151  148  157 1   
   152  149  150 1   
   153  149  152 1   
   154  149  158 1   
   155  150  151 2   
   156  150  163 1   
   157  152  153 1   
   158  152  159 1   
   159  152  160 1   
   160  153  154 1   
   161  153  161 1   
   162  153  162 1   
   163  154  155 1   
   164  154  156 1   
   165  163  164 1   
   166  163  168 1   
   167  164  165 1   
   168  164  166 1   
   169  164  167 1   
   170  170  171 1   
   171  170  172 1   
   172  173  174 1   
   173  173  175 1   
@<TRIPOS>SUBSTRUCTURE
     1 MOL         1 TEMP              0 ****  ****    0 ROOT
