@<TRIPOS>MOLECULE
MOL
  189   185     1     0     0
SMALL
resp


@<TRIPOS>ATOM
      1 C1          0.3440    0.8360    6.2430 c3        1 MOL     -0.435454
      2 C2          0.0810    0.9740    4.7890 c         1 MOL      0.812792
      3 O1          0.8800    1.5490    3.9860 o         1 MOL     -0.619988
      4 H1         -0.2700    1.5500    6.7920 hc        1 MOL      0.111247
      5 H2          0.0970   -0.1760    6.5630 hc        1 MOL      0.111247
      6 H3          1.3970    1.0340    6.4430 hc        1 MOL      0.111247
      7 N1         -1.1940    0.6550    4.4680 n         1 MOL     -0.783094
      8 C3         -1.7280    0.8340    3.0680 c3        1 MOL      0.342893
      9 C4         -2.2040    2.3140    2.9470 c         1 MOL      0.499722
     10 O2         -2.9340    2.7310    3.8290 o         1 MOL     -0.556332
     11 C5         -2.9840   -0.1090    2.9130 c3        1 MOL     -0.230896
     12 C6         -3.7300    0.1760    1.6400 c         1 MOL      0.664063
     13 O3         -3.0930    0.4840    0.5980 o         1 MOL     -0.641330
     14 O4         -4.9610    0.1520    1.6600 o         1 MOL     -0.641330
     15 H4         -1.8160    0.5690    5.2550 hn        1 MOL      0.364184
     16 H5         -0.9720    0.5610    2.3320 h1        1 MOL      0.013697
     17 H6         -3.6140    0.1410    3.7770 hc        1 MOL      0.051178
     18 H7         -2.6510   -1.1440    2.8440 hc        1 MOL      0.051178
     19 N2         -1.8480    2.9380    1.8340 n         1 MOL     -0.127924
     20 C7         -1.9550    4.3850    1.6050 c3        1 MOL     -0.050725
     21 C8         -3.1230    4.6810    0.7230 c         1 MOL      0.453246
     22 O5         -3.7150    5.7410    0.7990 o         1 MOL     -0.574966
     23 C9         -0.5920    4.8130    0.8900 c3        1 MOL      0.050621
     24 C10        -0.3760    6.3290    0.7590 c3        1 MOL     -0.047900
     25 C11         0.8650    6.6490   -0.0570 c3        1 MOL     -0.117494
     26 C12         1.0020    8.0420   -0.5890 c3        1 MOL      0.214141
     27 N3          2.3500    8.2510   -1.1160 n4        1 MOL     -0.332467
     28 H8         -1.3200    2.4150    1.1550 hn        1 MOL     -0.069165
     29 H9         -2.0120    4.9320    2.5410 h1        1 MOL      0.072059
     30 H10        -0.7040    4.3440   -0.0910 hc        1 MOL      0.052867
     31 H11         0.3010    4.3840    1.3450 hc        1 MOL      0.052867
     32 H12        -0.2840    6.8830    1.6880 hc        1 MOL      0.034458
     33 H13        -1.2370    6.7680    0.2450 hc        1 MOL      0.034458
     34 H14         0.8950    6.0260   -0.9490 hc        1 MOL      0.034918
     35 H15         1.7270    6.4880    0.5820 hc        1 MOL      0.034918
     36 H16         0.8440    8.8240    0.1570 hx        1 MOL      0.046311
     37 H17         0.3360    8.2780   -1.4160 hx        1 MOL      0.046311
     38 H18         2.4670    9.1350   -1.5810 hn        1 MOL      0.300093
     39 H19         3.0530    7.9230   -0.4650 hn        1 MOL      0.300093
     40 H20         2.4030    7.6070   -1.8980 hn        1 MOL      0.300093
     41 N4         -3.3740    3.7840   -0.2570 n         1 MOL     -0.142023
     42 C13        -4.4400    3.8790   -1.3290 c3        1 MOL     -0.137162
     43 C14        -5.8630    3.4390   -0.9300 c         1 MOL      0.457657
     44 O6         -6.7370    3.4390   -1.8380 o         1 MOL     -0.524596
     45 C15        -3.8720    3.2440   -2.6250 c3        1 MOL      0.056749
     46 C16        -2.3980    3.2380   -2.8720 c         1 MOL      0.613018
     47 O7         -1.6940    2.4170   -2.1920 o         1 MOL     -0.645520
     48 O8         -1.9290    3.9290   -3.8340 o         1 MOL     -0.645520
     49 H21        -2.8640    2.9060   -0.2230 hn        1 MOL      0.066158
     50 H22        -4.5550    4.9560   -1.4650 h1        1 MOL      0.117307
     51 H23        -4.3570    3.8220   -3.4010 hc        1 MOL     -0.011974
     52 H24        -4.2870    2.2360   -2.6490 hc        1 MOL     -0.011974
     53 N5         -6.1940    3.0040    0.2970 n         1 MOL     -0.308095
     54 C17        -7.4880    2.4370    0.6060 c3        1 MOL     -0.256109
     55 C18        -7.8170    1.1220   -0.2090 c         1 MOL      0.543493
     56 O9         -8.9410    0.6880   -0.0940 o         1 MOL     -0.565892
     57 H25        -5.4460    3.0260    0.9780 hn        1 MOL      0.286590
     58 H26        -8.2570    3.1360    0.2870 h1        1 MOL      0.138577
     59 H27        -7.6200    2.2880    1.6800 h1        1 MOL      0.138577
     60 N6         -6.8430    0.4670   -0.8240 n         1 MOL     -0.185909
     61 C19        -7.1330   -0.7660   -1.5860 c3        1 MOL     -0.374422
     62 C20        -7.2850   -1.9850   -0.6290 c         1 MOL      0.507876
     63 O10        -7.7120   -3.0810   -1.0200 o         1 MOL     -0.526106
     64 C21        -6.2410   -1.0180   -2.7870 c3        1 MOL     -0.041877
     65 C22        -4.7850   -0.7410   -2.3810 c         1 MOL      0.786715
     66 O11        -4.2390   -1.2170   -1.4060 o         1 MOL     -0.763512
     67 O12        -4.0680   -0.1760   -3.1730 o         1 MOL     -0.763512
     68 H28        -5.8850    0.7580   -0.6730 hn        1 MOL      0.277736
     69 H29        -8.1410   -0.5870   -1.9660 h1        1 MOL      0.195265
     70 H30        -6.4750   -0.3130   -3.5740 hc        1 MOL      0.060730
     71 H31        -6.3670   -1.8960   -3.4270 hc        1 MOL      0.060730
     72 N7         -6.8270   -1.8560    0.6590 n         1 MOL     -0.263645
     73 C23        -6.5270   -2.9860    1.6010 c3        1 MOL     -0.103165
     74 C24        -5.4770   -3.9120    1.0480 c         1 MOL      0.491427
     75 O13        -5.5690   -5.1460    1.2660 o         1 MOL     -0.555852
     76 H32        -6.5080   -0.9370    0.9170 hn        1 MOL      0.220116
     77 H33        -7.3950   -3.6410    1.7320 h1        1 MOL      0.084493
     78 H34        -6.2390   -2.6250    2.5860 h1        1 MOL      0.084493
     79 N8         -4.4320   -3.4180    0.3620 n         1 MOL     -0.052528
     80 C25        -3.2700   -4.2070    0.0060 c3        1 MOL     -0.598757
     81 C26        -2.0220   -3.4480    0.1890 c         1 MOL      1.026869
     82 O14        -2.0530   -2.2470    0.0010 o         1 MOL     -0.665737
     83 C27        -3.2780   -4.6820   -1.4400 c3        1 MOL      0.396314
     84 C28        -4.3620   -5.7090   -1.7900 c3        1 MOL     -0.324097
     85 O15        -3.4280   -3.6870   -2.4110 oh        1 MOL     -0.599177
     86 H35        -4.2840   -2.4140    0.3390 hn        1 MOL      0.205793
     87 H36        -3.3180   -5.1000    0.6320 h1        1 MOL      0.173694
     88 H37        -2.3620   -5.1780   -1.7460 h1        1 MOL      0.048245
     89 H38        -4.0780   -3.0600   -2.0730 ho        1 MOL      0.372092
     90 H39        -4.1500   -6.6680   -1.3060 hc        1 MOL      0.088452
     91 H40        -5.3500   -5.3170   -1.5280 hc        1 MOL      0.088452
     92 H41        -4.3130   -6.0320   -2.8290 hc        1 MOL      0.088452
     93 N9         -0.9150   -4.1080    0.6300 n         1 MOL     -0.781419
     94 C29         0.3950   -3.5010    0.8870 c3        1 MOL      0.228502
     95 C30         1.2460   -3.9150   -0.3080 c         1 MOL      0.456281
     96 O16         1.3890   -5.1010   -0.6270 o         1 MOL     -0.543812
     97 C31         0.9650   -4.1910    2.2700 c3        1 MOL     -0.097079
     98 C32         0.3190   -3.6360    3.5550 c3        1 MOL      0.215069
     99 C33         2.5060   -4.0170    2.5060 c3        1 MOL     -0.059708
    100 C34         0.6670   -4.2680    4.8540 c3        1 MOL     -0.225877
    101 H42        -0.9230   -5.0530    0.9850 hn        1 MOL      0.341493
    102 H43         0.3220   -2.4200    0.9930 h1        1 MOL      0.003064
    103 H44         0.7150   -5.2430    2.1210 hc        1 MOL      0.055869
    104 H45        -0.7700   -3.7060    3.5150 hc        1 MOL     -0.028363
    105 H46         0.5340   -2.5770    3.6320 hc        1 MOL     -0.028363
    106 H47         2.8150   -2.9800    2.5660 hc        1 MOL      0.009949
    107 H48         2.9330   -4.5350    3.3620 hc        1 MOL      0.009949
    108 H49         3.0460   -4.3450    1.6180 hc        1 MOL      0.009949
    109 H50        -0.0510   -3.8570    5.5630 hc        1 MOL      0.047084
    110 H51         0.5370   -5.3510    4.7700 hc        1 MOL      0.047084
    111 H52         1.6230   -3.9840    5.2950 hc        1 MOL      0.047084
    112 N10         1.9970   -2.9410   -0.8890 n         1 MOL     -0.106899
    113 C35         3.1400   -3.0640   -1.8490 c3        1 MOL      0.059560
    114 C36         4.4770   -2.7940   -1.2150 c         1 MOL      0.359640
    115 O17         4.6630   -2.5430   -0.0320 o         1 MOL     -0.383951
    116 C37         2.9640   -2.0900   -3.0860 c3        1 MOL      0.339915
    117 C38         1.9240   -2.5630   -4.0840 c3        1 MOL     -0.080769
    118 O18         2.7330   -0.7650   -2.6710 oh        1 MOL     -0.704535
    119 H53         1.9180   -1.9840   -0.5600 hn        1 MOL     -0.145338
    120 H54         3.1490   -4.0670   -2.2810 h1        1 MOL      0.046813
    121 H55         3.8840   -2.1830   -3.6640 h1        1 MOL      0.001272
    122 H56         1.8600   -0.6170   -2.3020 ho        1 MOL      0.491029
    123 H57         2.2470   -3.4580   -4.6030 hc        1 MOL      0.011271
    124 H58         1.0140   -2.8540   -3.5600 hc        1 MOL      0.011271
    125 H59         1.8030   -1.8080   -4.8540 hc        1 MOL      0.011271
    126 N11         5.5110   -2.7900   -2.0300 n         1 MOL     -0.219385
    127 C39         6.9120   -2.8380   -1.4900 c3        1 MOL     -0.146011
    128 C40         7.3220   -1.6440   -0.6050 c         1 MOL      0.384289
    129 O19         7.9150   -1.8350    0.4630 o         1 MOL     -0.479037
    130 C41         7.9580   -3.0890   -2.5950 c3        1 MOL      0.457664
    131 C42         9.2710   -3.5590   -2.0650 c3        1 MOL     -0.352435
    132 O20         7.5210   -4.0990   -3.5220 oh        1 MOL     -0.639517
    133 H60         5.4320   -3.0470   -3.0070 hn        1 MOL      0.198005
    134 H61         6.9830   -3.6850   -0.8120 h1        1 MOL      0.133397
    135 H62         8.1470   -2.1760   -3.1680 h1        1 MOL     -0.055309
    136 H63         8.2320   -4.3490   -4.1170 ho        1 MOL      0.403478
    137 H64        10.0980   -3.5240   -2.7840 hc        1 MOL      0.094653
    138 H65         9.6420   -2.9930   -1.2130 hc        1 MOL      0.094653
    139 H66         9.1630   -4.6080   -1.8000 hc        1 MOL      0.094653
    140 N12         6.9370   -0.4380   -1.0570 n         1 MOL     -0.364157
    141 C43         7.2210    0.8530   -0.3220 c3        1 MOL      0.136079
    142 C44         6.3260    0.9090    0.9020 c         1 MOL      0.216898
    143 O21         6.8240    1.2880    1.9670 o         1 MOL     -0.497117
    144 C45         7.1030    1.9980   -1.2390 c3        1 MOL     -0.264418
    145 C46         7.5170    3.3370   -0.6070 c3        1 MOL      0.064254
    146 C47         7.3670    4.4090   -1.6680 c3        1 MOL      0.049506
    147 C48         7.5430    5.8610   -1.2430 c3        1 MOL     -0.142913
    148 N13         8.9660    6.2230   -0.9780 n4        1 MOL     -0.157828
    149 H67         6.2130   -0.4740   -1.7640 hn        1 MOL      0.218773
    150 H68         8.2500    0.8560    0.0420 h1        1 MOL      0.130064
    151 H69         6.0820    2.1370   -1.5900 hc        1 MOL      0.083447
    152 H70         7.7810    1.7560   -2.0590 hc        1 MOL      0.083447
    153 H71         8.5350    3.2640   -0.2410 hc        1 MOL      0.027774
    154 H72         6.8960    3.6150    0.2560 hc        1 MOL      0.027774
    155 H73         6.3220    4.3050   -1.9750 hc        1 MOL      0.023854
    156 H74         8.0040    4.2250   -2.5280 hc        1 MOL      0.023854
    157 H75         6.9160    5.9760   -0.3610 hx        1 MOL      0.106585
    158 H76         7.1550    6.5210   -2.0190 hx        1 MOL      0.106585
    159 H77         9.6060    6.0640   -1.7400 hn        1 MOL      0.243556
    160 H78         9.0860    7.2130   -0.8520 hn        1 MOL      0.243556
    161 H79         9.3450    5.8500   -0.1250 hn        1 MOL      0.243556
    162 N14         5.0830    0.3750    0.8800 n         1 MOL     -0.108988
    163 C49         4.1420    0.2560    2.0390 c3        1 MOL     -0.064369
    164 C50         4.6980   -0.6560    3.2030 c         1 MOL      0.427529
    165 O22         4.6230   -0.2060    4.3580 o         1 MOL     -0.545006
    166 C51         2.7540   -0.1910    1.6160 c3        1 MOL      0.069813
    167 C52         2.1370    0.9540    0.7930 c3        1 MOL     -0.179072
    168 C53         0.7890    0.5500    0.1430 c         1 MOL      0.883004
    169 O23         0.6160   -0.4290   -0.5850 o         1 MOL     -0.711945
    170 O24        -0.1020    1.4020    0.0350 o         1 MOL     -0.711945
    171 H80         4.8110   -0.0680    0.0100 hn        1 MOL      0.193569
    172 H81         4.1430    1.2590    2.4600 h1        1 MOL      0.106967
    173 H82         2.1630   -0.3140    2.5200 hc        1 MOL      0.026615
    174 H83         2.7460   -1.1010    1.0190 hc        1 MOL      0.026615
    175 H84         2.8120    1.3370    0.0160 hc        1 MOL      0.016965
    176 H85         1.9610    1.7650    1.4910 hc        1 MOL      0.016965
    177 N15         5.2410   -1.8030    2.8220 n         1 MOL      0.048646
    178 C54         5.9680   -2.7350    3.6520 c3        1 MOL     -0.320957
    179 H86         6.7920   -2.2180    4.1420 h1        1 MOL      0.112017
    180 H87         5.2990   -3.1470    4.4080 h1        1 MOL      0.112017
    181 H88         6.3610   -3.5420    3.0350 h1        1 MOL      0.112017
    182 H89         5.0750   -2.0820    1.8610 hn        1 MOL      0.106461
    183 Ca1        -1.8390   -0.0660   -1.5040 Ca        1 MOL      1.732986
    184 O25        -1.4580   -2.1710   -3.1280 oh        1 MOL     -0.854012
    185 H90        -2.1680   -2.7890   -2.9290 ho        1 MOL      0.406961
    186 H91        -1.2900   -2.3010   -4.0620 ho        1 MOL      0.406961
    187 O26        -0.2390    0.5650   -3.7300 oh        1 MOL     -0.854012
    188 H92        -0.3400    0.1580   -4.5960 ho        1 MOL      0.406961
    189 H93         0.0750    1.4530   -3.9320 ho        1 MOL      0.406961
@<TRIPOS>BOND
     1    1    2 1   
     2    1    4 1   
     3    1    5 1   
     4    1    6 1   
     5    2    3 2   
     6    2    7 1   
     7    7    8 1   
     8    7   15 1   
     9    8    9 1   
    10    8   11 1   
    11    8   16 1   
    12    9   10 2   
    13    9   19 1   
    14   11   12 1   
    15   11   17 1   
    16   11   18 1   
    17   12   13 1   
    18   12   14 1   
    19   19   20 1   
    20   19   28 1   
    21   20   21 1   
    22   20   23 1   
    23   20   29 1   
    24   21   22 2   
    25   21   41 1   
    26   23   24 1   
    27   23   30 1   
    28   23   31 1   
    29   24   25 1   
    30   24   32 1   
    31   24   33 1   
    32   25   26 1   
    33   25   34 1   
    34   25   35 1   
    35   26   27 1   
    36   26   36 1   
    37   26   37 1   
    38   27   38 1   
    39   27   39 1   
    40   27   40 1   
    41   41   42 1   
    42   41   49 1   
    43   42   43 1   
    44   42   45 1   
    45   42   50 1   
    46   43   44 2   
    47   43   53 1   
    48   45   46 1   
    49   45   51 1   
    50   45   52 1   
    51   46   47 1   
    52   46   48 1   
    53   53   54 1   
    54   53   57 1   
    55   54   55 1   
    56   54   58 1   
    57   54   59 1   
    58   55   56 2   
    59   55   60 1   
    60   60   61 1   
    61   60   68 1   
    62   61   62 1   
    63   61   64 1   
    64   61   69 1   
    65   62   63 2   
    66   62   72 1   
    67   64   65 1   
    68   64   70 1   
    69   64   71 1   
    70   65   66 1   
    71   65   67 1   
    72   72   73 1   
    73   72   76 1   
    74   73   74 1   
    75   73   77 1   
    76   73   78 1   
    77   74   75 2   
    78   74   79 1   
    79   79   80 1   
    80   79   86 1   
    81   80   81 1   
    82   80   83 1   
    83   80   87 1   
    84   81   82 2   
    85   81   93 1   
    86   83   84 1   
    87   83   85 1   
    88   83   88 1   
    89   84   90 1   
    90   84   91 1   
    91   84   92 1   
    92   85   89 1   
    93   93   94 1   
    94   93  101 1   
    95   94   95 1   
    96   94   97 1   
    97   94  102 1   
    98   95   96 2   
    99   95  112 1   
   100   97   98 1   
   101   97   99 1   
   102   97  103 1   
   103   98  100 1   
   104   98  104 1   
   105   98  105 1   
   106   99  106 1   
   107   99  107 1   
   108   99  108 1   
   109  100  109 1   
   110  100  110 1   
   111  100  111 1   
   112  112  113 1   
   113  112  119 1   
   114  113  114 1   
   115  113  116 1   
   116  113  120 1   
   117  114  115 2   
   118  114  126 1   
   119  116  117 1   
   120  116  118 1   
   121  116  121 1   
   122  117  123 1   
   123  117  124 1   
   124  117  125 1   
   125  118  122 1   
   126  126  127 1   
   127  126  133 1   
   128  127  128 1   
   129  127  130 1   
   130  127  134 1   
   131  128  129 2   
   132  128  140 1   
   133  130  131 1   
   134  130  132 1   
   135  130  135 1   
   136  131  137 1   
   137  131  138 1   
   138  131  139 1   
   139  132  136 1   
   140  140  141 1   
   141  140  149 1   
   142  141  142 1   
   143  141  144 1   
   144  141  150 1   
   145  142  143 2   
   146  142  162 1   
   147  144  145 1   
   148  144  151 1   
   149  144  152 1   
   150  145  146 1   
   151  145  153 1   
   152  145  154 1   
   153  146  147 1   
   154  146  155 1   
   155  146  156 1   
   156  147  148 1   
   157  147  157 1   
   158  147  158 1   
   159  148  159 1   
   160  148  160 1   
   161  148  161 1   
   162  162  163 1   
   163  162  171 1   
   164  163  164 1   
   165  163  166 1   
   166  163  172 1   
   167  164  165 2   
   168  164  177 1   
   169  166  167 1   
   170  166  173 1   
   171  166  174 1   
   172  167  168 1   
   173  167  175 1   
   174  167  176 1   
   175  168  169 1   
   176  168  170 1   
   177  177  178 1   
   178  177  182 1   
   179  178  179 1   
   180  178  180 1   
   181  178  181 1   
   182  184  185 1   
   183  184  186 1   
   184  187  188 1   
   185  187  189 1   
@<TRIPOS>SUBSTRUCTURE
     1 MOL         1 TEMP              0 ****  ****    0 ROOT
