@<TRIPOS>MOLECULE
MOL
  189   185     1     0     0
SMALL
resp


@<TRIPOS>ATOM
      1 C1          0.4220    1.9430    5.6060 c3        1 MOL     -0.384701
      2 C2         -0.1630    1.8460    4.1990 c         1 MOL      0.746523
      3 O1          0.4300    2.3870    3.3120 o         1 MOL     -0.603463
      4 H1          0.0930    1.0870    6.1960 hc        1 MOL      0.095449
      5 H2          1.5100    1.9460    5.5480 hc        1 MOL      0.095449
      6 H3          0.0790    2.8630    6.0790 hc        1 MOL      0.095449
      7 N1         -1.3480    1.1820    4.0720 n         1 MOL     -0.669683
      8 C3         -1.9990    1.2010    2.7360 c3        1 MOL      0.373069
      9 C4         -2.5380    2.5950    2.4000 c         1 MOL      0.360354
     10 O2         -3.4990    3.0190    3.0050 o         1 MOL     -0.530942
     11 C5         -3.1920    0.2240    2.6620 c3        1 MOL     -0.353400
     12 C6         -3.9430    0.2150    1.3310 c         1 MOL      0.730959
     13 O3         -5.1380   -0.2040    1.3210 o         1 MOL     -0.643367
     14 O4         -3.3390    0.6840    0.3120 o         1 MOL     -0.643367
     15 H4         -1.8890    1.0370    4.9130 hn        1 MOL      0.333638
     16 H5         -1.2710    0.8470    2.0130 h1        1 MOL     -0.018199
     17 H6         -3.9300    0.5240    3.4060 hc        1 MOL      0.078292
     18 H7         -2.8430   -0.7620    2.9470 hc        1 MOL      0.078292
     19 N2         -1.9430    3.3040    1.4060 n         1 MOL     -0.201032
     20 C7         -2.1800    4.7010    1.0750 c3        1 MOL     -0.102056
     21 C8         -3.2560    4.7640    0.0430 c         1 MOL      0.492726
     22 O5         -4.0710    5.6140    0.0900 o         1 MOL     -0.571750
     23 C9         -0.8770    5.3170    0.6890 c3        1 MOL      0.087793
     24 C10        -0.8280    6.8090    0.2830 c3        1 MOL     -0.098162
     25 C11        -1.6700    7.7960    1.1210 c3        1 MOL      0.114607
     26 C12        -1.2020    7.8660    2.5810 c3        1 MOL     -0.108847
     27 N3         -1.9940    8.9140    3.2310 n4        1 MOL     -0.171560
     28 H8         -1.1860    2.8470    0.9150 hn        1 MOL      0.224851
     29 H9         -2.4680    5.2690    1.9640 h1        1 MOL      0.067721
     30 H10        -0.3900    4.7390   -0.0870 hc        1 MOL     -0.001778
     31 H11        -0.1940    5.2780    1.5460 hc        1 MOL     -0.001778
     32 H12        -1.2050    6.9550   -0.7260 hc        1 MOL      0.029568
     33 H13         0.2090    7.1540    0.2220 hc        1 MOL      0.029568
     34 H14        -2.7310    7.5880    0.9870 hc        1 MOL     -0.003968
     35 H15        -1.5090    8.7900    0.7120 hc        1 MOL     -0.003968
     36 H16        -0.1790    8.2370    2.6140 hx        1 MOL      0.115581
     37 H17        -1.4920    6.9890    3.1560 hx        1 MOL      0.115581
     38 H18        -1.9060    9.0510    4.2300 hn        1 MOL      0.274829
     39 H19        -1.7690    9.7890    2.7710 hn        1 MOL      0.274829
     40 H20        -2.9720    8.7720    3.0450 hn        1 MOL      0.274829
     41 N4         -3.3090    3.8250   -0.9220 n         1 MOL     -0.190915
     42 C13        -4.2700    3.9360   -2.0860 c3        1 MOL      0.087787
     43 C14        -5.5510    3.0360   -1.8940 c         1 MOL      0.501791
     44 O6         -6.3990    3.0440   -2.7040 o         1 MOL     -0.501523
     45 C15        -3.5010    3.6630   -3.4140 c3        1 MOL     -0.289777
     46 C16        -2.7760    2.3540   -3.6330 c         1 MOL      0.826266
     47 O7         -2.6720    1.6650   -2.5960 o         1 MOL     -0.703497
     48 O8         -2.3920    2.0210   -4.7600 o         1 MOL     -0.703497
     49 H21        -2.6710    3.0400   -1.0300 hn        1 MOL      0.158999
     50 H22        -4.7090    4.9320   -2.1360 h1        1 MOL      0.046170
     51 H23        -2.7340    4.4290   -3.3090 hc        1 MOL      0.041496
     52 H24        -4.1750    3.7220   -4.2670 hc        1 MOL      0.041496
     53 N5         -5.6350    2.2470   -0.8340 n         1 MOL     -0.374112
     54 C17        -6.8500    1.5730   -0.5590 c3        1 MOL     -0.062489
     55 C18        -7.2440    0.4990   -1.5540 c         1 MOL      0.461660
     56 O9         -8.3370    0.4350   -2.0670 o         1 MOL     -0.576432
     57 H25        -4.8380    2.0330   -0.2450 hn        1 MOL      0.282588
     58 H26        -7.6730    2.2850   -0.5450 h1        1 MOL      0.065499
     59 H27        -6.9290    0.9980    0.3620 h1        1 MOL      0.065499
     60 N6         -6.3570   -0.4710   -1.7840 n         1 MOL     -0.038032
     61 C19        -6.7250   -1.6940   -2.4320 c3        1 MOL      0.004931
     62 C20        -6.8880   -2.8740   -1.4410 c         1 MOL      0.350441
     63 O10        -7.2760   -3.9970   -1.8120 o         1 MOL     -0.524971
     64 C21        -5.5400   -2.0460   -3.3370 c3        1 MOL     -0.250666
     65 C22        -4.1260   -1.9480   -2.7400 c         1 MOL      0.698255
     66 O11        -3.9510   -1.9330   -1.4860 o         1 MOL     -0.689697
     67 O12        -3.1700   -1.6500   -3.4290 o         1 MOL     -0.689697
     68 H28        -5.4760   -0.3700   -1.2900 hn        1 MOL      0.021960
     69 H29        -7.6310   -1.6480   -3.0390 h1        1 MOL      0.120523
     70 H30        -5.5890   -1.2970   -4.1240 hc        1 MOL      0.072402
     71 H31        -5.7850   -2.9890   -3.8160 hc        1 MOL      0.072402
     72 N7         -6.6000   -2.6760   -0.1250 n         1 MOL     -0.200970
     73 C23        -6.7210   -3.6480    0.9950 c3        1 MOL     -0.173021
     74 C24        -5.4210   -4.4410    1.1660 c         1 MOL      0.537836
     75 O13        -5.4600   -5.4410    1.8930 o         1 MOL     -0.568090
     76 H32        -6.3480   -1.7640    0.2280 hn        1 MOL      0.211068
     77 H33        -7.5580   -4.3080    0.7450 h1        1 MOL      0.108716
     78 H34        -6.9890   -3.0790    1.8860 h1        1 MOL      0.108716
     79 N8         -4.2650   -3.9600    0.6510 n         1 MOL     -0.234908
     80 C25        -2.9430   -4.5030    1.0060 c3        1 MOL     -0.020686
     81 C26        -1.7790   -3.4830    1.0430 c         1 MOL      0.533844
     82 O14        -1.9850   -2.2790    0.8780 o         1 MOL     -0.633360
     83 C27        -2.5350   -5.6330    0.0750 c3        1 MOL      0.269631
     84 C28        -3.5450   -6.7670   -0.0030 c3        1 MOL     -0.363743
     85 O15        -2.3470   -5.1100   -1.1980 oh        1 MOL     -0.608450
     86 H35        -4.2790   -3.1530    0.0400 hn        1 MOL      0.201106
     87 H36        -2.9740   -5.0750    1.9320 h1        1 MOL      0.052219
     88 H37        -1.5700   -5.9730    0.4400 h1        1 MOL      0.045485
     89 H38        -3.1980   -5.1660   -1.6310 ho        1 MOL      0.420386
     90 H39        -3.6320   -7.2010    0.9890 hc        1 MOL      0.102192
     91 H40        -4.4710   -6.3490   -0.3920 hc        1 MOL      0.102192
     92 H41        -3.1440   -7.5550   -0.6380 hc        1 MOL      0.102192
     93 N9         -0.5910   -3.9750    1.3900 n         1 MOL     -0.427574
     94 C29         0.6010   -3.1990    1.7290 c3        1 MOL     -0.073390
     95 C30         1.8540   -3.5920    0.8670 c         1 MOL      0.575310
     96 O16         2.4490   -4.6380    1.0700 o         1 MOL     -0.572915
     97 C31         0.9510   -3.1920    3.2780 c3        1 MOL      0.324297
     98 C32        -0.3150   -2.9440    4.1570 c3        1 MOL      0.120849
     99 C33         2.1190   -2.2810    3.5840 c3        1 MOL     -0.221417
    100 C34        -0.0170   -3.1370    5.6590 c3        1 MOL     -0.390547
    101 H42        -0.6470   -4.9620    1.5980 hn        1 MOL      0.247403
    102 H43         0.3960   -2.1550    1.4790 h1        1 MOL      0.123993
    103 H44         1.3090   -4.1990    3.5010 hc        1 MOL     -0.057043
    104 H45        -0.9720   -3.7850    3.9310 hc        1 MOL     -0.009894
    105 H46        -0.7900   -1.9850    3.9240 hc        1 MOL     -0.009894
    106 H47         2.9690   -2.4300    2.9160 hc        1 MOL      0.025984
    107 H48         1.8410   -1.2370    3.4280 hc        1 MOL      0.025984
    108 H49         2.3740   -2.4720    4.6230 hc        1 MOL      0.025984
    109 H50         0.6420   -2.3730    6.0670 hc        1 MOL      0.091390
    110 H51        -0.9680   -3.2090    6.1900 hc        1 MOL      0.091390
    111 H52         0.4810   -4.0980    5.7830 hc        1 MOL      0.091390
    112 N10         2.3630   -2.6630    0.0500 n         1 MOL     -0.283282
    113 C35         3.5340   -2.8710   -0.8030 c3        1 MOL     -0.202659
    114 C36         4.8080   -2.6360    0.0320 c         1 MOL      0.527253
    115 O17         4.8190   -1.8430    1.0010 o         1 MOL     -0.448727
    116 C37         3.5220   -2.0270   -2.0900 c3        1 MOL      0.327530
    117 C38         2.4590   -2.5750   -3.0920 c3        1 MOL     -0.247102
    118 O18         3.3090   -0.7040   -1.6160 oh        1 MOL     -0.616449
    119 H53         1.9270   -1.7500    0.0180 hn        1 MOL      0.187561
    120 H54         3.6810   -3.8830   -1.1560 h1        1 MOL      0.088079
    121 H55         4.4890   -2.0870   -2.6090 h1        1 MOL      0.004535
    122 H56         2.3770   -0.5970   -1.4020 ho        1 MOL      0.376063
    123 H57         2.8070   -3.5510   -3.4460 hc        1 MOL      0.079282
    124 H58         1.5080   -2.7340   -2.5950 hc        1 MOL      0.079282
    125 H59         2.3990   -1.9470   -3.9700 hc        1 MOL      0.079282
    126 N11         5.9460   -3.1500   -0.4140 n         1 MOL     -0.320681
    127 C39         7.2190   -2.6400    0.1280 c3        1 MOL     -0.204835
    128 C40         7.4050   -1.0820   -0.0280 c         1 MOL      0.392290
    129 O19         7.9560   -0.4860    0.9220 o         1 MOL     -0.457605
    130 C41         8.4030   -3.3120   -0.5210 c3        1 MOL      0.281325
    131 C42         8.3590   -4.8130   -0.4000 c3        1 MOL     -0.320376
    132 O20         8.2570   -3.0860   -1.8880 oh        1 MOL     -0.676231
    133 H60         5.9020   -3.9330   -1.0490 hn        1 MOL      0.267625
    134 H61         7.2330   -2.8930    1.1900 h1        1 MOL      0.162669
    135 H62         9.3790   -2.9580   -0.1900 h1        1 MOL      0.059585
    136 H63         8.7210   -3.7940   -2.3400 ho        1 MOL      0.427722
    137 H64         8.6080   -5.1510    0.6050 hc        1 MOL      0.092803
    138 H65         7.3800   -5.1940   -0.6950 hc        1 MOL      0.092803
    139 H66         9.0140   -5.2850   -1.1200 hc        1 MOL      0.092803
    140 N12         7.0550   -0.4480   -1.1730 n         1 MOL     -0.120225
    141 C43         7.0720    0.9680   -1.2080 c3        1 MOL     -0.268290
    142 C44         6.3110    1.6850   -0.0040 c         1 MOL      0.428746
    143 O21         6.7880    2.6040    0.5690 o         1 MOL     -0.508223
    144 C45         6.7420    1.4910   -2.6930 c3        1 MOL     -0.137764
    145 C46         7.2910    2.9160   -2.7870 c3        1 MOL      0.156350
    146 C47         7.0400    3.5940   -4.1780 c3        1 MOL     -0.219994
    147 C48         7.9820    3.0190   -5.2880 c3        1 MOL     -0.061498
    148 N13         9.4340    3.3630   -5.0360 n4        1 MOL     -0.343977
    149 H67         6.8080   -0.9750   -2.0060 hn        1 MOL      0.233325
    150 H68         8.1160    1.2310   -1.0460 h1        1 MOL      0.122747
    151 H69         5.6850    1.6350   -2.8750 hc        1 MOL      0.075414
    152 H70         7.2120    0.9150   -3.5010 hc        1 MOL      0.075414
    153 H71         8.3600    2.9470   -2.5460 hc        1 MOL     -0.002302
    154 H72         6.7420    3.5440   -2.1020 hc        1 MOL     -0.002302
    155 H73         7.2610    4.6350   -3.9620 hc        1 MOL      0.118713
    156 H74         6.0080    3.4020   -4.4700 hc        1 MOL      0.118713
    157 H75         7.6120    3.4210   -6.2370 hx        1 MOL      0.120768
    158 H76         7.8760    1.9360   -5.3550 hx        1 MOL      0.120768
    159 H77        10.0340    3.4670   -5.8470 hn        1 MOL      0.315772
    160 H78         9.4820    4.2070   -4.4730 hn        1 MOL      0.315772
    161 H79         9.9290    2.6500   -4.5280 hn        1 MOL      0.315772
    162 N14         5.0980    1.1730    0.3470 n         1 MOL     -0.028558
    163 C49         4.2520    1.6430    1.4620 c3        1 MOL     -0.345637
    164 C50         4.7960    1.4330    2.8670 c         1 MOL      0.567637
    165 O22         4.3250    2.1030    3.7910 o         1 MOL     -0.579619
    166 C51         2.8140    1.0190    1.4030 c3        1 MOL      0.113581
    167 C52         2.0040    1.4900    0.2200 c3        1 MOL      0.005105
    168 C53         0.7050    0.6960    0.0190 c         1 MOL      0.626724
    169 O23         0.6990   -0.4580   -0.4860 o         1 MOL     -0.657918
    170 O24        -0.3560    1.3410   -0.1270 o         1 MOL     -0.657918
    171 H80         4.6770    0.4380   -0.2020 hn        1 MOL      0.150509
    172 H81         4.1040    2.6970    1.2400 h1        1 MOL      0.145318
    173 H82         2.2050    1.2270    2.2910 hc        1 MOL      0.021839
    174 H83         2.8320   -0.0600    1.3100 hc        1 MOL      0.021839
    175 H84         2.5980    1.5680   -0.6870 hc        1 MOL     -0.000888
    176 H85         1.6370    2.5000    0.3940 hc        1 MOL     -0.000888
    177 N15         5.6700    0.4510    3.0620 n         1 MOL     -0.145301
    178 C54         6.4880    0.3020    4.2640 c3        1 MOL     -0.185458
    179 H86         6.0230   -0.4230    4.9320 h1        1 MOL      0.086502
    180 H87         7.4820   -0.0460    3.9860 h1        1 MOL      0.086502
    181 H88         6.5680    1.2640    4.7710 h1        1 MOL      0.086502
    182 H89         5.8290   -0.0610    2.2070 hn        1 MOL      0.159169
    183 Ca1        -1.8330   -0.6550   -1.2950 Ca        1 MOL      1.707651
    184 O25        -0.8580   -3.0050   -2.0320 oh        1 MOL     -0.866225
    185 H90        -1.3550   -3.6950   -1.5950 ho        1 MOL      0.396267
    186 H91        -0.5390   -3.4090   -2.8420 ho        1 MOL      0.396267
    187 O26        -0.6050    0.1820   -3.5290 oh        1 MOL     -0.866225
    188 H92        -1.1930    0.9110   -3.7090 ho        1 MOL      0.396267
    189 H93        -0.3740   -0.1600   -4.4000 ho        1 MOL      0.396267
@<TRIPOS>BOND
     1    1    2 1   
     2    1    4 1   
     3    1    5 1   
     4    1    6 1   
     5    2    3 2   
     6    2    7 1   
     7    7    8 1   
     8    7   15 1   
     9    8    9 1   
    10    8   11 1   
    11    8   16 1   
    12    9   10 2   
    13    9   19 1   
    14   11   12 1   
    15   11   17 1   
    16   11   18 1   
    17   12   13 1   
    18   12   14 1   
    19   19   20 1   
    20   19   28 1   
    21   20   21 1   
    22   20   23 1   
    23   20   29 1   
    24   21   22 2   
    25   21   41 1   
    26   23   24 1   
    27   23   30 1   
    28   23   31 1   
    29   24   25 1   
    30   24   32 1   
    31   24   33 1   
    32   25   26 1   
    33   25   34 1   
    34   25   35 1   
    35   26   27 1   
    36   26   36 1   
    37   26   37 1   
    38   27   38 1   
    39   27   39 1   
    40   27   40 1   
    41   41   42 1   
    42   41   49 1   
    43   42   43 1   
    44   42   45 1   
    45   42   50 1   
    46   43   44 2   
    47   43   53 1   
    48   45   46 1   
    49   45   51 1   
    50   45   52 1   
    51   46   47 1   
    52   46   48 1   
    53   53   54 1   
    54   53   57 1   
    55   54   55 1   
    56   54   58 1   
    57   54   59 1   
    58   55   56 2   
    59   55   60 1   
    60   60   61 1   
    61   60   68 1   
    62   61   62 1   
    63   61   64 1   
    64   61   69 1   
    65   62   63 2   
    66   62   72 1   
    67   64   65 1   
    68   64   70 1   
    69   64   71 1   
    70   65   66 1   
    71   65   67 1   
    72   72   73 1   
    73   72   76 1   
    74   73   74 1   
    75   73   77 1   
    76   73   78 1   
    77   74   75 2   
    78   74   79 1   
    79   79   80 1   
    80   79   86 1   
    81   80   81 1   
    82   80   83 1   
    83   80   87 1   
    84   81   82 2   
    85   81   93 1   
    86   83   84 1   
    87   83   85 1   
    88   83   88 1   
    89   84   90 1   
    90   84   91 1   
    91   84   92 1   
    92   85   89 1   
    93   93   94 1   
    94   93  101 1   
    95   94   95 1   
    96   94   97 1   
    97   94  102 1   
    98   95   96 2   
    99   95  112 1   
   100   97   98 1   
   101   97   99 1   
   102   97  103 1   
   103   98  100 1   
   104   98  104 1   
   105   98  105 1   
   106   99  106 1   
   107   99  107 1   
   108   99  108 1   
   109  100  109 1   
   110  100  110 1   
   111  100  111 1   
   112  112  113 1   
   113  112  119 1   
   114  113  114 1   
   115  113  116 1   
   116  113  120 1   
   117  114  115 2   
   118  114  126 1   
   119  116  117 1   
   120  116  118 1   
   121  116  121 1   
   122  117  123 1   
   123  117  124 1   
   124  117  125 1   
   125  118  122 1   
   126  126  127 1   
   127  126  133 1   
   128  127  128 1   
   129  127  130 1   
   130  127  134 1   
   131  128  129 2   
   132  128  140 1   
   133  130  131 1   
   134  130  132 1   
   135  130  135 1   
   136  131  137 1   
   137  131  138 1   
   138  131  139 1   
   139  132  136 1   
   140  140  141 1   
   141  140  149 1   
   142  141  142 1   
   143  141  144 1   
   144  141  150 1   
   145  142  143 2   
   146  142  162 1   
   147  144  145 1   
   148  144  151 1   
   149  144  152 1   
   150  145  146 1   
   151  145  153 1   
   152  145  154 1   
   153  146  147 1   
   154  146  155 1   
   155  146  156 1   
   156  147  148 1   
   157  147  157 1   
   158  147  158 1   
   159  148  159 1   
   160  148  160 1   
   161  148  161 1   
   162  162  163 1   
   163  162  171 1   
   164  163  164 1   
   165  163  166 1   
   166  163  172 1   
   167  164  165 2   
   168  164  177 1   
   169  166  167 1   
   170  166  173 1   
   171  166  174 1   
   172  167  168 1   
   173  167  175 1   
   174  167  176 1   
   175  168  169 1   
   176  168  170 1   
   177  177  178 1   
   178  177  182 1   
   179  178  179 1   
   180  178  180 1   
   181  178  181 1   
   182  184  185 1   
   183  184  186 1   
   184  187  188 1   
   185  187  189 1   
@<TRIPOS>SUBSTRUCTURE
     1 MOL         1 TEMP              0 ****  ****    0 ROOT
