@<TRIPOS>MOLECULE
MOL
  175   173     1     0     0
SMALL
resp


@<TRIPOS>ATOM
      1 C1          0.8950    4.0170    5.4450 c3        1 MOL     -0.424112
      2 C2          0.3440    3.9110    4.0040 c         1 MOL      0.680159
      3 O1          1.0880    4.1080    3.0640 o         1 MOL     -0.526874
      4 H1          1.3200    3.0580    5.7420 hc        1 MOL      0.102856
      5 H2          1.6690    4.7840    5.4830 hc        1 MOL      0.102856
      6 H3          0.0860    4.2830    6.1250 hc        1 MOL      0.102856
      7 N1         -0.9220    3.6810    3.8810 n         1 MOL     -0.541669
      8 C3         -1.6150    3.4760    2.6570 c3        1 MOL      0.035781
      9 C4         -1.7100    4.7300    1.8020 c         1 MOL      0.679954
     10 O2         -1.6430    5.8410    2.2870 o         1 MOL     -0.558643
     11 C5         -3.0260    2.9060    2.9820 c3        1 MOL     -0.507933
     12 C6         -3.8070    2.3170    1.8230 c         1 MOL      0.782364
     13 O3         -5.0270    2.0730    2.0240 o         1 MOL     -0.645756
     14 O4         -3.2700    1.9840    0.7260 o         1 MOL     -0.645756
     15 H4         -1.4520    3.4820    4.7150 hn        1 MOL      0.318453
     16 H5         -1.0340    2.7720    2.0490 h1        1 MOL      0.168355
     17 H6         -3.6180    3.7430    3.3380 hc        1 MOL      0.126969
     18 H7         -2.9510    2.1490    3.7650 hc        1 MOL      0.126969
     19 N2         -1.7870    4.5200    0.4870 n         1 MOL     -0.624840
     20 C7         -2.0620    5.5590   -0.5420 c3        1 MOL      0.279176
     21 C8         -3.3160    5.2750   -1.4570 c         1 MOL      0.527772
     22 O5         -3.7340    6.1050   -2.2710 o         1 MOL     -0.571515
     23 C9         -0.8070    5.8200   -1.3020 c3        1 MOL     -0.245422
     24 H8         -1.7880    3.5830    0.1220 hn        1 MOL      0.331812
     25 H9         -2.2980    6.4620    0.0160 h1        1 MOL     -0.002065
     26 H10        -0.5380    4.8780   -1.7910 hc        1 MOL      0.065939
     27 H11        -0.9090    6.4460   -2.1910 hc        1 MOL      0.065939
     28 H12         0.0030    6.2100   -0.6840 hc        1 MOL      0.065939
     29 N3         -3.9610    4.0950   -1.3140 n         1 MOL     -0.519375
     30 C10        -4.8880    3.5650   -2.3800 c3        1 MOL      0.235273
     31 C11        -6.1770    2.8090   -1.8900 c         1 MOL      0.248951
     32 O6         -7.0250    2.5610   -2.7480 o         1 MOL     -0.507982
     33 C12        -4.2570    2.6620   -3.4190 c3        1 MOL     -0.274902
     34 C13        -3.5090    1.5330   -2.7280 c         1 MOL      0.782579
     35 O7         -4.1350    0.7650   -1.9930 o         1 MOL     -0.717346
     36 O8         -2.3240    1.4170   -2.8550 o         1 MOL     -0.717346
     37 H13        -3.6310    3.4360   -0.6300 hn        1 MOL      0.276818
     38 H14        -5.2180    4.4830   -2.8800 h1        1 MOL      0.067713
     39 H15        -3.5130    3.1550   -4.0300 hc        1 MOL      0.061885
     40 H16        -5.0060    2.2080   -4.0710 hc        1 MOL      0.061885
     41 N4         -6.2630    2.4000   -0.6290 n         1 MOL     -0.086690
     42 C14        -7.4690    1.6210   -0.1090 c3        1 MOL     -0.239908
     43 C15        -7.6170    0.1860   -0.7400 c         1 MOL      0.573557
     44 O9         -8.7540   -0.2410   -0.8010 o         1 MOL     -0.604318
     45 H17        -5.4570    2.4790   -0.0230 hn        1 MOL      0.068984
     46 H18        -8.3590    2.2290   -0.2810 h1        1 MOL      0.121115
     47 H19        -7.2500    1.4230    0.9410 h1        1 MOL      0.121115
     48 N5         -6.5740   -0.4770   -1.3120 n         1 MOL     -0.226967
     49 C16        -6.5610   -1.8220   -1.9740 c3        1 MOL     -0.204381
     50 C17        -6.6700   -3.0380   -1.0110 c         1 MOL      0.428237
     51 O10        -6.5830   -4.1740   -1.4830 o         1 MOL     -0.550998
     52 C18        -5.4550   -1.8700   -2.9730 c3        1 MOL      0.044376
     53 C19        -4.0620   -2.0490   -2.4230 c         1 MOL      0.365488
     54 N6         -3.0690   -2.0450   -3.2490 n         1 MOL     -0.597255
     55 O11        -3.7610   -2.2620   -1.2460 o         1 MOL     -0.157816
     56 H20        -5.7030    0.0140   -1.1830 hn        1 MOL      0.230843
     57 H21        -7.4780   -1.7440   -2.5550 h1        1 MOL      0.135275
     58 H22        -5.4720   -0.9220   -3.5030 hc        1 MOL      0.039127
     59 H23        -5.7200   -2.5380   -3.7860 hc        1 MOL      0.039127
     60 H24        -3.1630   -1.7790   -4.2210 hn        1 MOL      0.309579
     61 H25        -2.1210   -2.0100   -2.8910 hn        1 MOL      0.309579
     62 N7         -6.5660   -2.7410    0.2200 n         1 MOL     -0.099952
     63 C20        -6.5620   -3.6740    1.3970 c3        1 MOL     -0.357192
     64 C21        -5.1830   -4.3490    1.8900 c         1 MOL      0.566826
     65 O12        -5.2030   -5.1170    2.8800 o         1 MOL     -0.570643
     66 H26        -6.5240   -1.7410    0.3790 hn        1 MOL      0.140218
     67 H27        -7.3490   -4.4230    1.2690 h1        1 MOL      0.144978
     68 H28        -6.8360   -3.1030    2.2830 h1        1 MOL      0.144978
     69 N8         -4.0960   -3.9220    1.2700 n         1 MOL     -0.279725
     70 C22        -2.7230   -4.5310    1.3260 c3        1 MOL     -0.131481
     71 C23        -1.6070   -3.4810    1.4290 c         1 MOL      0.563375
     72 O13        -1.7910   -2.3710    0.8710 o         1 MOL     -0.679021
     73 C24        -2.4010   -5.4120    0.1110 c3        1 MOL      0.612970
     74 C25        -3.2590   -6.6480   -0.0100 c3        1 MOL     -0.231400
     75 O14        -2.6550   -4.7630   -1.1150 oh        1 MOL     -0.648471
     76 H29        -4.2560   -3.4040    0.4120 hn        1 MOL      0.182262
     77 H30        -2.6830   -5.2730    2.1260 h1        1 MOL      0.067581
     78 H31        -1.4000   -5.8520    0.1480 h1        1 MOL     -0.047663
     79 H32        -2.8340   -3.8250   -1.0700 ho        1 MOL      0.260459
     80 H33        -3.0470   -7.2270    0.8880 hc        1 MOL      0.038675
     81 H34        -4.3240   -6.4490    0.0740 hc        1 MOL      0.038675
     82 H35        -3.0550   -7.3100   -0.8400 hc        1 MOL      0.038675
     83 N9         -0.3450   -3.8750    1.8630 n         1 MOL     -0.546477
     84 C26         0.8430   -3.0570    1.8810 c3        1 MOL      0.413070
     85 C27         1.5300   -3.1840    0.4940 c         1 MOL      0.363855
     86 O15         1.8720   -4.3110    0.0600 o         1 MOL     -0.584423
     87 C28         1.7200   -3.3380    3.1380 c3        1 MOL     -0.189438
     88 C29         1.4240   -2.2840    4.2360 c3        1 MOL      0.026681
     89 C30         3.1870   -3.2770    2.7460 c3        1 MOL     -0.086811
     90 C31         2.0510   -2.5740    5.6350 c3        1 MOL     -0.055540
     91 H36        -0.1280   -4.8220    2.1470 hn        1 MOL      0.246778
     92 H37         0.5780   -2.0040    1.9450 h1        1 MOL      0.037263
     93 H38         1.4190   -4.2790    3.5960 hc        1 MOL      0.056576
     94 H39         0.3430   -2.2260    4.2710 hc        1 MOL     -0.006253
     95 H40         1.8310   -1.3010    3.9940 hc        1 MOL     -0.006253
     96 H41         3.7890   -3.6120    3.5960 hc        1 MOL      0.026933
     97 H42         3.4440   -4.0800    2.0520 hc        1 MOL      0.026933
     98 H43         3.4620   -2.2650    2.4630 hc        1 MOL      0.026933
     99 H44         1.7640   -3.5310    6.0690 hc        1 MOL      0.010673
    100 H45         3.1360   -2.5440    5.6590 hc        1 MOL      0.010673
    101 H46         1.7230   -1.7670    6.2940 hc        1 MOL      0.010673
    102 N10         1.7360   -2.0660   -0.1400 n         1 MOL     -0.087577
    103 C32         2.5850   -1.9320   -1.3230 c3        1 MOL      0.079381
    104 C33         4.0680   -1.5960   -0.9870 c         1 MOL      0.458597
    105 O16         4.5240   -1.5730    0.1960 o         1 MOL     -0.428041
    106 C34         1.8890   -0.9230   -2.2930 c3        1 MOL     -0.169022
    107 C35         0.5120   -1.2980   -2.8010 c         1 MOL      0.664851
    108 O17        -0.5340   -1.2560   -2.0900 o         1 MOL     -0.671020
    109 O18         0.4350   -1.6370   -4.0390 o         1 MOL     -0.671020
    110 H47         1.3260   -1.2490    0.2930 hn        1 MOL      0.064823
    111 H48         2.5120   -2.9040   -1.7990 h1        1 MOL      0.070266
    112 H49         2.5550   -0.5860   -3.0870 hc        1 MOL      0.039006
    113 H50         1.6210   -0.0770   -1.6610 hc        1 MOL      0.039006
    114 N11         4.9420   -1.4830   -2.0200 n         1 MOL     -0.730379
    115 C36         6.3670   -1.2870   -1.7000 c3        1 MOL      0.657891
    116 C37         6.6690    0.1000   -1.1440 c         1 MOL      0.060268
    117 O19         7.4240    0.2190   -0.1450 o         1 MOL     -0.426301
    118 C38         7.3380   -1.6950   -2.7420 c3        1 MOL     -0.334074
    119 C39         8.7860   -1.6950   -2.2640 ca        1 MOL      0.119258
    120 C40         9.1790   -2.5330   -1.2130 ca        1 MOL     -0.183319
    121 C41         9.7080   -0.8050   -2.8250 ca        1 MOL     -0.183319
    122 C42        10.5190   -2.5770   -0.8640 ca        1 MOL     -0.072325
    123 C43        11.0840   -0.8320   -2.4460 ca        1 MOL     -0.072325
    124 C44        11.5070   -1.7790   -1.5180 ca        1 MOL     -0.150474
    125 H51         4.6420   -1.5730   -2.9840 hn        1 MOL      0.338526
    126 H52         6.5650   -1.9980   -0.8920 h1        1 MOL      0.016619
    127 H53         7.1550   -0.9840   -3.5500 hc        1 MOL      0.080500
    128 H54         7.0910   -2.7090   -3.0310 hc        1 MOL      0.080500
    129 H55         8.4500   -3.1670   -0.7200 ha        1 MOL      0.122625
    130 H56         9.4130   -0.1810   -3.6650 ha        1 MOL      0.122625
    131 H57        10.8180   -3.2450   -0.0710 ha        1 MOL      0.097481
    132 H58        11.8780   -0.2990   -2.9400 ha        1 MOL      0.097481
    133 H59        12.5480   -2.0030   -1.3370 ha        1 MOL      0.107475
    134 N12         6.2650    1.1880   -1.7910 n         1 MOL      0.066885
    135 C45         6.5740    2.5620   -1.2700 c3        1 MOL      0.115673
    136 C46         5.9980    2.6480    0.1580 c         1 MOL      0.164247
    137 O20         6.5260    3.3510    1.0840 o         1 MOL     -0.467765
    138 C47         5.9860    3.4750   -2.2630 c3        1 MOL     -0.079614
    139 C48         6.0690    2.7280   -3.5710 c3        1 MOL      0.111857
    140 C49         5.6500    1.3320   -3.1180 c3        1 MOL     -0.255513
    141 H60         7.6630    2.6570   -1.2380 h1        1 MOL      0.052792
    142 H61         4.9260    3.6600   -2.0750 hc        1 MOL      0.038616
    143 H62         6.5520    4.4090   -2.3140 hc        1 MOL      0.038616
    144 H63         5.5130    3.1090   -4.4180 hc        1 MOL     -0.007865
    145 H64         7.1220    2.6270   -3.8490 hc        1 MOL     -0.007865
    146 H65         4.5630    1.4180   -3.0250 h1        1 MOL      0.096959
    147 H66         6.0290    0.6550   -3.8830 h1        1 MOL      0.096959
    148 N13         4.8320    2.0200    0.4380 n         1 MOL      0.024434
    149 C50         4.1340    1.9360    1.7280 c3        1 MOL     -0.168790
    150 C51         4.9130    1.1650    2.7900 c         1 MOL      0.458652
    151 O21         5.1110    1.5890    3.9320 o         1 MOL     -0.548325
    152 C52         2.7630    1.2420    1.6060 c3        1 MOL     -0.029452
    153 C53         1.8380    1.8290    0.5100 c3        1 MOL     -0.050414
    154 C54         0.4060    1.1900    0.4460 c         1 MOL      0.533995
    155 O22         0.1640    0.0790    1.0510 o         1 MOL     -0.654529
    156 O23        -0.4520    1.7900   -0.2160 o         1 MOL     -0.654529
    157 H67         4.2890    1.5670   -0.2820 hn        1 MOL      0.143826
    158 H68         4.0150    2.9800    2.0070 h1        1 MOL      0.116581
    159 H69         2.3140    1.2560    2.6000 hc        1 MOL      0.055804
    160 H70         2.8160    0.1800    1.3490 hc        1 MOL      0.055804
    161 H71         2.3950    1.7500   -0.4270 hc        1 MOL      0.015357
    162 H72         1.7830    2.8820    0.7900 hc        1 MOL      0.015357
    163 N14         5.4490   -0.0410    2.4200 n         1 MOL      0.008845
    164 C55         6.3850   -0.7210    3.2200 c3        1 MOL     -0.199582
    165 H73         6.1180   -1.7760    3.2730 h1        1 MOL      0.064598
    166 H74         7.3790   -0.6210    2.7830 h1        1 MOL      0.064598
    167 H75         6.3840   -0.2960    4.2230 h1        1 MOL      0.064598
    168 H76         5.1870   -0.4370    1.5260 hn        1 MOL      0.055709
    169 Ca1        -2.2650   -0.0250   -0.4620 Ca        1 MOL      1.629761
    170 O24        -2.0100   -0.2160    2.5810 oh        1 MOL     -0.672513
    171 H77        -2.2310    0.1510    3.4400 ho        1 MOL      0.329752
    172 H78        -1.0520   -0.2020    2.5520 ho        1 MOL      0.329752
    173 O25        -4.5000   -0.4550    0.9360 oh        1 MOL     -0.672513
    174 H79        -4.6220    0.4290    1.2820 ho        1 MOL      0.329752
    175 H80        -4.3770   -1.0050    1.7070 ho        1 MOL      0.329752
@<TRIPOS>BOND
     1    1    2 1   
     2    1    4 1   
     3    1    5 1   
     4    1    6 1   
     5    2    3 2   
     6    2    7 1   
     7    7    8 1   
     8    7   15 1   
     9    8    9 1   
    10    8   11 1   
    11    8   16 1   
    12    9   10 2   
    13    9   19 1   
    14   11   12 1   
    15   11   17 1   
    16   11   18 1   
    17   12   13 1   
    18   12   14 1   
    19   19   20 1   
    20   19   24 1   
    21   20   21 1   
    22   20   23 1   
    23   20   25 1   
    24   21   22 2   
    25   21   29 1   
    26   23   26 1   
    27   23   27 1   
    28   23   28 1   
    29   29   30 1   
    30   29   37 1   
    31   30   31 1   
    32   30   33 1   
    33   30   38 1   
    34   31   32 2   
    35   31   41 1   
    36   33   34 1   
    37   33   39 1   
    38   33   40 1   
    39   34   35 1   
    40   34   36 1   
    41   41   42 1   
    42   41   45 1   
    43   42   43 1   
    44   42   46 1   
    45   42   47 1   
    46   43   44 2   
    47   43   48 1   
    48   48   49 1   
    49   48   56 1   
    50   49   50 1   
    51   49   52 1   
    52   49   57 1   
    53   50   51 2   
    54   50   62 1   
    55   52   53 1   
    56   52   58 1   
    57   52   59 1   
    58   53   54 1   
    59   53   55 2   
    60   54   60 1   
    61   54   61 1   
    62   62   63 1   
    63   62   66 1   
    64   63   64 1   
    65   63   67 1   
    66   63   68 1   
    67   64   65 2   
    68   64   69 1   
    69   69   70 1   
    70   69   76 1   
    71   70   71 1   
    72   70   73 1   
    73   70   77 1   
    74   71   72 2   
    75   71   83 1   
    76   73   74 1   
    77   73   75 1   
    78   73   78 1   
    79   74   80 1   
    80   74   81 1   
    81   74   82 1   
    82   75   79 1   
    83   83   84 1   
    84   83   91 1   
    85   84   85 1   
    86   84   87 1   
    87   84   92 1   
    88   85   86 2   
    89   85  102 1   
    90   87   88 1   
    91   87   89 1   
    92   87   93 1   
    93   88   90 1   
    94   88   94 1   
    95   88   95 1   
    96   89   96 1   
    97   89   97 1   
    98   89   98 1   
    99   90   99 1   
   100   90  100 1   
   101   90  101 1   
   102  102  103 1   
   103  102  110 1   
   104  103  104 1   
   105  103  106 1   
   106  103  111 1   
   107  104  105 2   
   108  104  114 1   
   109  106  107 1   
   110  106  112 1   
   111  106  113 1   
   112  107  108 1   
   113  107  109 1   
   114  114  115 1   
   115  114  125 1   
   116  115  116 1   
   117  115  118 1   
   118  115  126 1   
   119  116  117 2   
   120  116  134 1   
   121  118  119 1   
   122  118  127 1   
   123  118  128 1   
   124  119  120 ar  
   125  119  121 ar  
   126  120  122 ar  
   127  120  129 1   
   128  121  123 ar  
   129  121  130 1   
   130  122  124 ar  
   131  122  131 1   
   132  123  124 ar  
   133  123  132 1   
   134  124  133 1   
   135  134  135 1   
   136  134  140 1   
   137  135  136 1   
   138  135  138 1   
   139  135  141 1   
   140  136  137 2   
   141  136  148 1   
   142  138  139 1   
   143  138  142 1   
   144  138  143 1   
   145  139  140 1   
   146  139  144 1   
   147  139  145 1   
   148  140  146 1   
   149  140  147 1   
   150  148  149 1   
   151  148  157 1   
   152  149  150 1   
   153  149  152 1   
   154  149  158 1   
   155  150  151 2   
   156  150  163 1   
   157  152  153 1   
   158  152  159 1   
   159  152  160 1   
   160  153  154 1   
   161  153  161 1   
   162  153  162 1   
   163  154  155 1   
   164  154  156 1   
   165  163  164 1   
   166  163  168 1   
   167  164  165 1   
   168  164  166 1   
   169  164  167 1   
   170  170  171 1   
   171  170  172 1   
   172  173  174 1   
   173  173  175 1   
@<TRIPOS>SUBSTRUCTURE
     1 MOL         1 TEMP              0 ****  ****    0 ROOT
