@<TRIPOS>MOLECULE
MOL
  175   173     1     0     0
SMALL
resp


@<TRIPOS>ATOM
      1 C1          0.1980    3.9960    5.6760 c3        1 MOL     -0.447034
      2 C2         -0.2240    3.8230    4.2210 c         1 MOL      0.771382
      3 O1          0.5370    4.0430    3.3020 o         1 MOL     -0.575263
      4 H1          0.6730    3.0810    6.0270 hc        1 MOL      0.106508
      5 H2          0.9030    4.8240    5.7540 hc        1 MOL      0.106508
      6 H3         -0.6800    4.2070    6.2860 hc        1 MOL      0.106508
      7 N1         -1.4590    3.4110    4.0200 n         1 MOL     -0.632451
      8 C3         -2.1250    3.2690    2.7130 c3        1 MOL      0.037393
      9 C4         -2.2460    4.5910    1.9350 c         1 MOL      0.783207
     10 O2         -2.5040    5.6270    2.5510 o         1 MOL     -0.601253
     11 C5         -3.5690    2.6920    2.8650 c3        1 MOL     -0.158789
     12 C6         -4.2560    2.2590    1.5060 c         1 MOL      0.520085
     13 O3         -5.2930    2.9260    1.2560 o         1 MOL     -0.599576
     14 O4         -3.5480    1.8050    0.5780 o         1 MOL     -0.599576
     15 H4         -2.0750    3.2330    4.8020 hn        1 MOL      0.315438
     16 H5         -1.4910    2.6040    2.1320 h1        1 MOL      0.045492
     17 H6         -4.2490    3.4060    3.3280 hc        1 MOL      0.026097
     18 H7         -3.5400    1.7890    3.4800 hc        1 MOL      0.026097
     19 N2         -2.0610    4.5740    0.5880 n         1 MOL     -0.660127
     20 C7         -2.3860    5.6850   -0.2750 c3        1 MOL      0.380198
     21 C8         -3.0250    5.2330   -1.5910 c         1 MOL      0.454153
     22 O5         -3.0100    5.9790   -2.5570 o         1 MOL     -0.571822
     23 C9         -1.1780    6.5110   -0.5880 c3        1 MOL     -0.321637
     24 H8         -1.7510    3.7170    0.1560 hn        1 MOL      0.356760
     25 H9         -3.1320    6.3070    0.2300 h1        1 MOL     -0.006143
     26 H10        -1.4440    7.4680   -1.0260 hc        1 MOL      0.072962
     27 H11        -0.6780    6.7010    0.3660 hc        1 MOL      0.072962
     28 H12        -0.5020    6.0640   -1.3260 hc        1 MOL      0.072962
     29 N3         -3.7020    4.1110   -1.6630 n         1 MOL     -0.298700
     30 C10        -4.3790    3.6180   -2.8860 c3        1 MOL     -0.046489
     31 C11        -5.6740    2.8540   -2.7750 c         1 MOL      0.380706
     32 O6         -6.3400    2.6210   -3.8230 o         1 MOL     -0.551382
     33 C12        -3.3330    2.7080   -3.5910 c3        1 MOL     -0.038881
     34 C13        -2.8320    1.5420   -2.7280 c         1 MOL      0.572192
     35 O7         -3.6530    0.8360   -2.0340 o         1 MOL     -0.650106
     36 O8         -1.5690    1.4280   -2.6030 o         1 MOL     -0.650106
     37 H13        -3.9180    3.6360   -0.7940 hn        1 MOL      0.210159
     38 H14        -4.4410    4.4650   -3.5750 h1        1 MOL      0.101780
     39 H15        -2.4720    3.2950   -3.8980 hc        1 MOL      0.029766
     40 H16        -3.7490    2.2750   -4.4980 hc        1 MOL      0.029766
     41 N4         -6.0900    2.5300   -1.5530 n         1 MOL     -0.118310
     42 C14        -7.2230    1.7940   -1.1370 c3        1 MOL     -0.271861
     43 C15        -7.1980    0.2900   -1.3370 c         1 MOL      0.634972
     44 O9         -8.2400   -0.3390   -1.1080 o         1 MOL     -0.640953
     45 H17        -5.4860    2.8170   -0.7970 hn        1 MOL      0.152146
     46 H18        -8.0830    2.1690   -1.6950 h1        1 MOL      0.120997
     47 H19        -7.3420    1.9960   -0.0740 h1        1 MOL      0.120997
     48 N5         -6.1270   -0.3830   -1.8480 n         1 MOL     -0.387382
     49 C16        -6.0170   -1.8430   -2.2840 c3        1 MOL      0.095336
     50 C17        -6.2020   -2.9050   -1.1600 c         1 MOL      0.372871
     51 O10        -6.4400   -4.0510   -1.4790 o         1 MOL     -0.532113
     52 C18        -4.9560   -2.0170   -3.3940 c3        1 MOL     -0.224651
     53 C19        -3.5730   -2.2380   -2.7650 c         1 MOL      0.662983
     54 N6         -2.5690   -2.0990   -3.5350 n         1 MOL     -0.662730
     55 O11        -3.4090   -2.4350   -1.5390 o         1 MOL     -0.499415
     56 H20        -5.2720    0.1460   -1.9680 hn        1 MOL      0.208123
     57 H21        -6.8850   -2.0140   -2.9300 h1        1 MOL      0.093034
     58 H22        -4.8710   -1.1130   -3.9880 hc        1 MOL      0.067812
     59 H23        -5.1270   -2.8830   -4.0340 hc        1 MOL      0.067812
     60 H24        -2.6770   -1.6230   -4.4130 hn        1 MOL      0.343852
     61 H25        -1.6840   -2.1800   -3.0520 hn        1 MOL      0.343852
     62 N7         -6.3190   -2.5750    0.1180 n         1 MOL     -0.048623
     63 C20        -6.5660   -3.4280    1.2500 c3        1 MOL     -0.516744
     64 C21        -5.3950   -4.3230    1.7330 c         1 MOL      0.591749
     65 O12        -5.5290   -5.1740    2.6070 o         1 MOL     -0.568269
     66 H26        -6.1820   -1.5860    0.2440 hn        1 MOL      0.191760
     67 H27        -7.3880   -4.0610    0.9060 h1        1 MOL      0.189430
     68 H28        -6.8030   -2.7360    2.0600 h1        1 MOL      0.189430
     69 N8         -4.2020   -4.1040    1.0730 n         1 MOL     -0.059114
     70 C22        -2.7770   -4.6040    1.3740 c3        1 MOL     -0.356716
     71 C23        -1.7260   -3.5040    1.4620 c         1 MOL      0.597118
     72 O13        -1.7520   -2.4730    0.7840 o         1 MOL     -0.549260
     73 C24        -2.3580   -5.6460    0.3110 c3        1 MOL      0.732646
     74 C25        -3.2690   -6.8600    0.2430 c3        1 MOL     -0.414487
     75 O14        -2.3560   -5.0970   -0.9940 oh        1 MOL     -0.678817
     76 H29        -4.2360   -3.3880    0.3620 hn        1 MOL      0.013034
     77 H30        -2.7920   -4.9640    2.3990 h1        1 MOL      0.090745
     78 H31        -1.3780   -6.0420    0.5840 h1        1 MOL     -0.087626
     79 H32        -2.6410   -4.1760   -1.0040 ho        1 MOL      0.380470
     80 H33        -4.2790   -6.5620   -0.0270 hc        1 MOL      0.082295
     81 H34        -2.8090   -7.5880   -0.4270 hc        1 MOL      0.082295
     82 H35        -3.2840   -7.1540    1.2880 hc        1 MOL      0.082295
     83 N9         -0.6060   -3.9250    2.0690 n         1 MOL     -0.393350
     84 C26         0.5540   -3.0650    1.9960 c3        1 MOL      0.100971
     85 C27         1.4200   -3.4320    0.7270 c         1 MOL      0.428854
     86 O15         1.5390   -4.5450    0.2830 o         1 MOL     -0.555852
     87 C28         1.4460   -3.1230    3.2640 c3        1 MOL      0.015096
     88 C29         0.8000   -2.2670    4.3400 c3        1 MOL      0.053504
     89 C30         2.9510   -2.6310    3.1520 c3        1 MOL     -0.137414
     90 C31         1.3570   -2.4960    5.6700 c3        1 MOL     -0.055773
     91 H36        -0.6030   -4.7910    2.5830 hn        1 MOL      0.264049
     92 H37         0.2860   -2.0090    1.9000 h1        1 MOL     -0.065993
     93 H38         1.4610   -4.1740    3.5380 hc        1 MOL      0.013402
     94 H39        -0.2690   -2.4440    4.3360 hc        1 MOL     -0.016050
     95 H40         0.9190   -1.2200    4.0820 hc        1 MOL     -0.016050
     96 H41         3.5410   -3.1820    2.4200 hc        1 MOL      0.020757
     97 H42         3.0140   -1.5670    2.8970 hc        1 MOL      0.020757
     98 H43         3.5060   -2.7770    4.0800 hc        1 MOL      0.020757
     99 H44         0.7590   -2.0040    6.4380 hc        1 MOL      0.005739
    100 H45         1.3620   -3.5690    5.8000 hc        1 MOL      0.005739
    101 H46         2.3810   -2.1330    5.8160 hc        1 MOL      0.005739
    102 N10         1.9710   -2.3910    0.1800 n         1 MOL     -0.125091
    103 C32         2.7460   -2.2910   -0.9940 c3        1 MOL     -0.044363
    104 C33         4.1240   -1.6430   -0.8100 c         1 MOL      0.427728
    105 O16         4.3000   -0.9280    0.1430 o         1 MOL     -0.324905
    106 C34         2.0480   -1.3810   -1.9680 c3        1 MOL     -0.190171
    107 C35         0.5680   -1.6930   -2.2430 c         1 MOL      0.765913
    108 O17        -0.3160   -1.1830   -1.5930 o         1 MOL     -0.713528
    109 O18         0.2400   -2.3060   -3.3320 o         1 MOL     -0.713528
    110 H47         1.8030   -1.4710    0.5670 hn        1 MOL      0.245046
    111 H48         2.6970   -3.2590   -1.5000 h1        1 MOL      0.077819
    112 H49         2.5760   -1.3940   -2.9190 hc        1 MOL      0.043130
    113 H50         2.0550   -0.3980   -1.4930 hc        1 MOL      0.043130
    114 N11         5.1350   -1.9530   -1.6560 n         1 MOL     -0.729415
    115 C36         6.5720   -1.5260   -1.3460 c3        1 MOL      0.434666
    116 C37         6.6840   -0.0340   -1.0090 c         1 MOL      0.285069
    117 O19         7.3670    0.2380   -0.0080 o         1 MOL     -0.490021
    118 C38         7.4980   -1.9650   -2.4940 c3        1 MOL     -0.268642
    119 C39         8.9410   -1.5290   -2.3690 ca        1 MOL      0.165606
    120 C40         9.6220   -1.8330   -1.1830 ca        1 MOL     -0.249692
    121 C41         9.6790   -0.8140   -3.3840 ca        1 MOL     -0.249692
    122 C42        10.9690   -1.4450   -0.9610 ca        1 MOL      0.015274
    123 C43        10.9970   -0.4570   -3.1210 ca        1 MOL      0.015274
    124 C44        11.7140   -0.7510   -1.9690 ca        1 MOL     -0.267459
    125 H51         4.9600   -2.6150   -2.3910 hn        1 MOL      0.374737
    126 H52         6.9630   -2.0530   -0.4760 h1        1 MOL      0.049710
    127 H53         7.0730   -1.8140   -3.4940 hc        1 MOL      0.075436
    128 H54         7.4220   -3.0530   -2.5170 hc        1 MOL      0.075436
    129 H55         9.1450   -2.3790   -0.3820 ha        1 MOL      0.126035
    130 H56         9.2460   -0.5920   -4.3580 ha        1 MOL      0.126035
    131 H57        11.3730   -1.6170    0.0280 ha        1 MOL      0.082392
    132 H58        11.4390    0.1340   -3.9130 ha        1 MOL      0.082392
    133 H59        12.6810   -0.3050   -1.7990 ha        1 MOL      0.148970
    134 N12         5.9570    0.9270   -1.6390 n         1 MOL     -0.017939
    135 C45         6.1180    2.3320   -1.2970 c3        1 MOL      0.016214
    136 C46         5.5530    2.6980    0.0950 c         1 MOL      0.235762
    137 O20         5.9320    3.7190    0.6650 o         1 MOL     -0.520489
    138 C47         5.6020    3.1060   -2.4750 c3        1 MOL     -0.045764
    139 C48         5.5080    2.1250   -3.6410 c3        1 MOL      0.008356
    140 C49         5.3100    0.8080   -2.8820 c3        1 MOL     -0.052850
    141 H60         7.2010    2.4760   -1.3030 h1        1 MOL      0.074919
    142 H61         4.5710    3.3720   -2.2290 hc        1 MOL      0.040365
    143 H62         6.2110    3.9290   -2.8440 hc        1 MOL      0.040365
    144 H63         4.7070    2.3060   -4.3510 hc        1 MOL      0.009450
    145 H64         6.4550    2.0240   -4.1660 hc        1 MOL      0.009450
    146 H65         4.2260    0.6830   -2.8190 h1        1 MOL      0.053747
    147 H66         5.6980    0.0080   -3.5160 h1        1 MOL      0.053747
    148 N13         4.6560    1.9250    0.6510 n         1 MOL      0.106748
    149 C50         4.0560    1.9880    1.9450 c3        1 MOL     -0.082001
    150 C51         4.8870    1.1820    2.9760 c         1 MOL      0.440280
    151 O21         4.9730    1.6680    4.1030 o         1 MOL     -0.557728
    152 C52         2.5840    1.4150    1.8710 c3        1 MOL      0.004726
    153 C53         1.7760    2.0160    0.7220 c3        1 MOL     -0.455497
    154 C54         0.3490    1.4520    0.7930 c         1 MOL      0.818637
    155 O22         0.0540    0.3330    1.2630 o         1 MOL     -0.693687
    156 O23        -0.5010    2.0990    0.1610 o         1 MOL     -0.693687
    157 H67         4.4310    1.0620    0.1770 hn        1 MOL      0.009772
    158 H68         4.0180    3.0350    2.2550 h1        1 MOL      0.114565
    159 H69         1.9950    1.6500    2.7650 hc        1 MOL      0.050957
    160 H70         2.5220    0.3270    1.8320 hc        1 MOL      0.050957
    161 H71         2.1870    1.6050   -0.1930 hc        1 MOL      0.141696
    162 H72         1.7080    3.0920    0.8390 hc        1 MOL      0.141696
    163 N14         5.5620    0.0400    2.6290 n         1 MOL     -0.073465
    164 C55         6.6840   -0.5580    3.3990 c3        1 MOL     -0.208704
    165 H73         6.4840   -1.6160    3.5700 h1        1 MOL      0.082677
    166 H74         7.6110   -0.4510    2.8350 h1        1 MOL      0.082677
    167 H75         6.7800   -0.0470    4.3570 h1        1 MOL      0.082677
    168 H76         5.4660   -0.2870    1.6740 hn        1 MOL      0.080880
    169 Ca1        -2.1030   -0.1110   -0.2260 Ca        1 MOL      1.614958
    170 O24        -1.9010   -0.2130    2.8180 oh        1 MOL     -0.796421
    171 H77        -1.8490    0.3090    3.6140 ho        1 MOL      0.389868
    172 H78        -1.0150   -0.1920    2.4650 ho        1 MOL      0.389868
    173 O25        -4.1650   -1.0290    1.3340 oh        1 MOL     -0.796421
    174 H79        -3.7070   -1.0470    2.1800 ho        1 MOL      0.389868
    175 H80        -4.9810   -0.5620    1.5200 ho        1 MOL      0.389868
@<TRIPOS>BOND
     1    1    2 1   
     2    1    4 1   
     3    1    5 1   
     4    1    6 1   
     5    2    3 2   
     6    2    7 1   
     7    7    8 1   
     8    7   15 1   
     9    8    9 1   
    10    8   11 1   
    11    8   16 1   
    12    9   10 2   
    13    9   19 1   
    14   11   12 1   
    15   11   17 1   
    16   11   18 1   
    17   12   13 1   
    18   12   14 1   
    19   19   20 1   
    20   19   24 1   
    21   20   21 1   
    22   20   23 1   
    23   20   25 1   
    24   21   22 2   
    25   21   29 1   
    26   23   26 1   
    27   23   27 1   
    28   23   28 1   
    29   29   30 1   
    30   29   37 1   
    31   30   31 1   
    32   30   33 1   
    33   30   38 1   
    34   31   32 2   
    35   31   41 1   
    36   33   34 1   
    37   33   39 1   
    38   33   40 1   
    39   34   35 1   
    40   34   36 1   
    41   41   42 1   
    42   41   45 1   
    43   42   43 1   
    44   42   46 1   
    45   42   47 1   
    46   43   44 2   
    47   43   48 1   
    48   48   49 1   
    49   48   56 1   
    50   49   50 1   
    51   49   52 1   
    52   49   57 1   
    53   50   51 2   
    54   50   62 1   
    55   52   53 1   
    56   52   58 1   
    57   52   59 1   
    58   53   54 1   
    59   53   55 2   
    60   54   60 1   
    61   54   61 1   
    62   62   63 1   
    63   62   66 1   
    64   63   64 1   
    65   63   67 1   
    66   63   68 1   
    67   64   65 2   
    68   64   69 1   
    69   69   70 1   
    70   69   76 1   
    71   70   71 1   
    72   70   73 1   
    73   70   77 1   
    74   71   72 2   
    75   71   83 1   
    76   73   74 1   
    77   73   75 1   
    78   73   78 1   
    79   74   80 1   
    80   74   81 1   
    81   74   82 1   
    82   75   79 1   
    83   83   84 1   
    84   83   91 1   
    85   84   85 1   
    86   84   87 1   
    87   84   92 1   
    88   85   86 2   
    89   85  102 1   
    90   87   88 1   
    91   87   89 1   
    92   87   93 1   
    93   88   90 1   
    94   88   94 1   
    95   88   95 1   
    96   89   96 1   
    97   89   97 1   
    98   89   98 1   
    99   90   99 1   
   100   90  100 1   
   101   90  101 1   
   102  102  103 1   
   103  102  110 1   
   104  103  104 1   
   105  103  106 1   
   106  103  111 1   
   107  104  105 2   
   108  104  114 1   
   109  106  107 1   
   110  106  112 1   
   111  106  113 1   
   112  107  108 1   
   113  107  109 1   
   114  114  115 1   
   115  114  125 1   
   116  115  116 1   
   117  115  118 1   
   118  115  126 1   
   119  116  117 2   
   120  116  134 1   
   121  118  119 1   
   122  118  127 1   
   123  118  128 1   
   124  119  120 ar  
   125  119  121 ar  
   126  120  122 ar  
   127  120  129 1   
   128  121  123 ar  
   129  121  130 1   
   130  122  124 ar  
   131  122  131 1   
   132  123  124 ar  
   133  123  132 1   
   134  124  133 1   
   135  134  135 1   
   136  134  140 1   
   137  135  136 1   
   138  135  138 1   
   139  135  141 1   
   140  136  137 2   
   141  136  148 1   
   142  138  139 1   
   143  138  142 1   
   144  138  143 1   
   145  139  140 1   
   146  139  144 1   
   147  139  145 1   
   148  140  146 1   
   149  140  147 1   
   150  148  149 1   
   151  148  157 1   
   152  149  150 1   
   153  149  152 1   
   154  149  158 1   
   155  150  151 2   
   156  150  163 1   
   157  152  153 1   
   158  152  159 1   
   159  152  160 1   
   160  153  154 1   
   161  153  161 1   
   162  153  162 1   
   163  154  155 1   
   164  154  156 1   
   165  163  164 1   
   166  163  168 1   
   167  164  165 1   
   168  164  166 1   
   169  164  167 1   
   170  170  171 1   
   171  170  172 1   
   172  173  174 1   
   173  173  175 1   
@<TRIPOS>SUBSTRUCTURE
     1 MOL         1 TEMP              0 ****  ****    0 ROOT
