@<TRIPOS>MOLECULE
MOL
  175   173     1     0     0
SMALL
resp


@<TRIPOS>ATOM
      1 C1          0.2850    4.0510    5.6360 c3        1 MOL     -0.363609
      2 C2         -0.3180    3.8890    4.1880 c         1 MOL      0.717646
      3 O1          0.4370    3.8920    3.2290 o         1 MOL     -0.546729
      4 H1          0.3020    3.0810    6.1320 hc        1 MOL      0.085177
      5 H2          1.3000    4.4410    5.5650 hc        1 MOL      0.085177
      6 H3         -0.3300    4.7420    6.2120 hc        1 MOL      0.085177
      7 N1         -1.6290    3.7290    4.0650 n         1 MOL     -0.691081
      8 C3         -2.3470    3.3750    2.7940 c3        1 MOL      0.407344
      9 C4         -2.5210    4.6220    1.8980 c         1 MOL      0.476158
     10 O2         -2.7950    5.7610    2.3790 o         1 MOL     -0.583577
     11 C5         -3.7300    2.6170    3.0100 c3        1 MOL     -0.377912
     12 C6         -4.3960    2.1650    1.6460 c         1 MOL      0.714791
     13 O3         -3.6870    1.7710    0.6660 o         1 MOL     -0.658434
     14 O4         -5.6630    2.1720    1.5690 o         1 MOL     -0.658434
     15 H4         -2.1480    3.8460    4.9190 hn        1 MOL      0.324536
     16 H5         -1.7390    2.6960    2.2040 h1        1 MOL     -0.082037
     17 H6         -4.4540    3.2440    3.5360 hc        1 MOL      0.069488
     18 H7         -3.4440    1.6900    3.5100 hc        1 MOL      0.069488
     19 N2         -2.3060    4.4590    0.5660 n         1 MOL     -0.357103
     20 C7         -2.3840    5.4450   -0.4590 c3        1 MOL      0.220754
     21 C8         -3.2670    5.0850   -1.7070 c         1 MOL      0.385529
     22 O5         -3.3040    5.8220   -2.6950 o         1 MOL     -0.544981
     23 C9         -0.9020    5.6850   -0.9220 c3        1 MOL     -0.252393
     24 H8         -1.9000    3.5700    0.3300 hn        1 MOL      0.314648
     25 H9         -2.7550    6.3710   -0.0260 h1        1 MOL      0.036066
     26 H10        -0.7010    6.7330   -1.1460 hc        1 MOL      0.066224
     27 H11        -0.2280    5.4640   -0.1020 hc        1 MOL      0.066224
     28 H12        -0.5640    5.0910   -1.7790 hc        1 MOL      0.066224
     29 N3         -3.9070    3.9070   -1.6900 n         1 MOL     -0.399432
     30 C10        -4.5250    3.3410   -2.9460 c3        1 MOL      0.208759
     31 C11        -5.9040    2.7620   -2.7550 c         1 MOL      0.338214
     32 O6         -6.6740    2.7190   -3.6940 o         1 MOL     -0.546473
     33 C12        -3.4920    2.4820   -3.6290 c3        1 MOL     -0.069329
     34 C13        -2.9630    1.2950   -2.7670 c         1 MOL      0.772147
     35 O7         -3.7790    0.6160   -2.1710 o         1 MOL     -0.754854
     36 O8         -1.7610    1.0510   -2.7270 o         1 MOL     -0.754854
     37 H13        -3.8860    3.3450   -0.8570 hn        1 MOL      0.194840
     38 H14        -4.5980    4.1760   -3.6350 h1        1 MOL      0.037755
     39 H15        -2.6340    3.1230   -3.8140 hc        1 MOL      0.013578
     40 H16        -3.8340    2.1350   -4.5990 hc        1 MOL      0.013578
     41 N4         -6.1310    2.2370   -1.5280 n         1 MOL     -0.025491
     42 C14        -7.3710    1.6170   -1.0310 c3        1 MOL     -0.366031
     43 C15        -7.3580    0.1080   -1.2750 c         1 MOL      0.681930
     44 O9         -8.3650   -0.5420   -1.1470 o         1 MOL     -0.648781
     45 H17        -5.3640    2.3880   -0.8910 hn        1 MOL      0.065678
     46 H18        -8.2500    1.9930   -1.5540 h1        1 MOL      0.150110
     47 H19        -7.5150    1.8470    0.0200 h1        1 MOL      0.150110
     48 N5         -6.2510   -0.5370   -1.7230 n         1 MOL     -0.409095
     49 C16        -6.2440   -1.8980   -2.1760 c3        1 MOL      0.252775
     50 C17        -6.3490   -2.9480   -1.0040 c         1 MOL      0.284399
     51 O10        -6.3780   -4.1570   -1.2450 o         1 MOL     -0.511085
     52 C18        -5.0300   -2.1810   -3.1270 c3        1 MOL     -0.446798
     53 C19        -3.7380   -2.3000   -2.3350 c         1 MOL      0.888262
     54 N6         -2.6700   -2.6180   -3.0670 n         1 MOL     -0.737040
     55 O11        -3.6600   -2.0200   -1.1370 o         1 MOL     -0.722115
     56 H20        -5.4550    0.0450   -1.9160 hn        1 MOL      0.226504
     57 H21        -7.1270   -2.0200   -2.8100 h1        1 MOL      0.046549
     58 H22        -5.0020   -1.3080   -3.7780 hc        1 MOL      0.110940
     59 H23        -5.2290   -3.0990   -3.6820 hc        1 MOL      0.110940
     60 H24        -2.7280   -2.8540   -4.0430 hn        1 MOL      0.329763
     61 H25        -1.7300   -2.3900   -2.7550 hn        1 MOL      0.329763
     62 N7         -6.3130   -2.4740    0.2350 n         1 MOL     -0.052754
     63 C20        -6.4400   -3.4350    1.3240 c3        1 MOL     -0.272841
     64 C21        -5.1260   -4.0920    1.7900 c         1 MOL      0.494751
     65 O12        -5.2940   -4.9260    2.6720 o         1 MOL     -0.606417
     66 H26        -6.5320   -1.5000    0.3840 hn        1 MOL      0.197630
     67 H27        -7.1560   -4.2250    1.0950 h1        1 MOL      0.121183
     68 H28        -6.7930   -2.8450    2.1650 h1        1 MOL      0.121183
     69 N8         -3.9730   -3.8400    1.2740 n         1 MOL     -0.088181
     70 C22        -2.6050   -4.4980    1.5110 c3        1 MOL     -0.109922
     71 C23        -1.5180   -3.4950    1.5000 c         1 MOL      0.524507
     72 O13        -1.6950   -2.4510    0.8400 o         1 MOL     -0.480793
     73 C24        -2.3260   -5.6150    0.4900 c3        1 MOL      0.645915
     74 C25        -3.2870   -6.8240    0.6010 c3        1 MOL     -0.413766
     75 O14        -2.2160   -5.0700   -0.8060 oh        1 MOL     -0.622844
     76 H29        -3.9740   -2.9780    0.7490 hn        1 MOL      0.068724
     77 H30        -2.6630   -4.9910    2.4920 h1        1 MOL      0.030867
     78 H31        -1.3230   -5.8890    0.8180 h1        1 MOL     -0.131817
     79 H32        -1.8440   -4.1980   -0.6830 ho        1 MOL      0.327143
     80 H33        -4.2400   -6.3200    0.4520 hc        1 MOL      0.100739
     81 H34        -2.9880   -7.6510   -0.0570 hc        1 MOL      0.100739
     82 H35        -3.2490   -7.1660    1.6350 hc        1 MOL      0.100739
     83 N9         -0.3850   -3.7790    2.1030 n         1 MOL     -0.546989
     84 C26         0.8680   -2.9560    1.9770 c3        1 MOL      0.080775
     85 C27         1.5690   -3.1990    0.6520 c         1 MOL      0.676739
     86 O15         1.9530   -4.3240    0.4400 o         1 MOL     -0.605209
     87 C28         1.6660   -3.0160    3.2610 c3        1 MOL      0.064736
     88 C29         1.1530   -1.9540    4.2570 c3        1 MOL      0.151057
     89 C30         3.1620   -2.8290    3.0820 c3        1 MOL     -0.220943
     90 C31         1.7170   -2.0730    5.7370 c3        1 MOL     -0.165900
     91 H36        -0.2940   -4.6770    2.5690 hn        1 MOL      0.319421
     92 H37         0.6720   -1.8960    1.8170 h1        1 MOL      0.087990
     93 H38         1.4310   -4.0040    3.6600 hc        1 MOL     -0.012643
     94 H39         0.0660   -1.9910    4.2840 hc        1 MOL     -0.036591
     95 H40         1.4580   -0.9570    3.9400 hc        1 MOL     -0.036591
     96 H41         3.3740   -1.8760    2.5870 hc        1 MOL      0.048015
     97 H42         3.7100   -2.9320    4.0180 hc        1 MOL      0.048015
     98 H43         3.5160   -3.6840    2.5010 hc        1 MOL      0.048015
     99 H44         2.8020   -1.9240    5.7660 hc        1 MOL      0.028096
    100 H45         1.0870   -1.4210    6.3360 hc        1 MOL      0.028096
    101 H46         1.4940   -3.0590    6.1420 hc        1 MOL      0.028096
    102 N10         1.8990   -2.1460   -0.0880 n         1 MOL     -0.585443
    103 C32         2.7290   -2.1170   -1.2850 c3        1 MOL      0.128899
    104 C33         4.0590   -1.4880   -0.9680 c         1 MOL      0.567430
    105 O16         4.2130   -0.7790    0.0790 o         1 MOL     -0.400694
    106 C34         1.9280   -1.3240   -2.3460 c3        1 MOL     -0.347732
    107 C35         0.5350   -1.8480   -2.5650 c         1 MOL      0.829092
    108 O17        -0.4590   -1.5720   -1.8120 o         1 MOL     -0.676543
    109 O18         0.3940   -2.3970   -3.6290 o         1 MOL     -0.676543
    110 H47         1.4710   -1.2860    0.2200 hn        1 MOL      0.301473
    111 H48         2.8770   -3.1270   -1.6710 h1        1 MOL      0.062683
    112 H49         2.5700   -1.3440   -3.2370 hc        1 MOL      0.095405
    113 H50         1.9520   -0.2620   -2.1140 hc        1 MOL      0.095405
    114 N11         5.0540   -1.7100   -1.8000 n         1 MOL     -0.861861
    115 C36         6.4000   -1.3490   -1.3750 c3        1 MOL      0.746102
    116 C37         6.6820    0.1180   -1.1390 c         1 MOL      0.141761
    117 O19         7.4060    0.3450   -0.1460 o         1 MOL     -0.459252
    118 C38         7.4000   -2.0890   -2.2770 c3        1 MOL     -0.370209
    119 C39         8.8300   -1.8360   -1.9870 ca        1 MOL      0.170398
    120 C40         9.3120   -2.1300   -0.7630 ca        1 MOL     -0.159937
    121 C41         9.6270   -1.2270   -3.0140 ca        1 MOL     -0.159937
    122 C42        10.6740   -1.9070   -0.4710 ca        1 MOL     -0.170909
    123 C43        10.9940   -0.9400   -2.7490 ca        1 MOL     -0.170909
    124 C44        11.5100   -1.2360   -1.4620 ca        1 MOL     -0.074105
    125 H51         4.9090   -2.2440   -2.6420 hn        1 MOL      0.388063
    126 H52         6.5130   -1.7630   -0.3710 h1        1 MOL     -0.012036
    127 H53         7.2240   -1.9510   -3.3460 hc        1 MOL      0.079809
    128 H54         7.2800   -3.1450   -2.0470 hc        1 MOL      0.079809
    129 H55         8.6580   -2.3820    0.0550 ha        1 MOL      0.117113
    130 H56         9.2250   -0.9990   -3.9960 ha        1 MOL      0.117113
    131 H57        11.0470   -2.1430    0.5110 ha        1 MOL      0.132631
    132 H58        11.6060   -0.4210   -3.4680 ha        1 MOL      0.132631
    133 H59        12.5470   -0.9770   -1.3200 ha        1 MOL      0.091490
    134 N12         6.0920    1.1000   -1.9030 n         1 MOL     -0.058019
    135 C45         6.2380    2.5490   -1.6320 c3        1 MOL      0.006913
    136 C46         5.6090    2.9780   -0.2600 c         1 MOL      0.250590
    137 O20         5.7540    4.1250    0.0750 o         1 MOL     -0.499109
    138 C47         5.3770    3.1990   -2.6650 c3        1 MOL     -0.080079
    139 C48         5.3870    2.2590   -3.8440 c3        1 MOL     -0.004890
    140 C49         5.4050    0.8490   -3.2220 c3        1 MOL     -0.097219
    141 H60         7.2820    2.8660   -1.7070 h1        1 MOL      0.093303
    142 H61         4.3250    3.1780   -2.3980 hc        1 MOL      0.067052
    143 H62         5.7810    4.1710   -2.9380 hc        1 MOL      0.067052
    144 H63         4.5210    2.5870   -4.4300 hc        1 MOL      0.020647
    145 H64         6.2940    2.4640   -4.4140 hc        1 MOL      0.020647
    146 H65         4.4210    0.4220   -3.0330 h1        1 MOL      0.056019
    147 H66         5.8480    0.1250   -3.9140 h1        1 MOL      0.056019
    148 N13         4.9120    2.0520    0.3790 n         1 MOL      0.004039
    149 C50         4.2000    2.3130    1.6850 c3        1 MOL     -0.005613
    150 C51         5.0010    1.6240    2.7710 c         1 MOL      0.444474
    151 O21         5.4070    2.2610    3.7220 o         1 MOL     -0.548804
    152 C52         2.8100    1.7540    1.7310 c3        1 MOL     -0.018903
    153 C53         1.8740    2.2300    0.5880 c3        1 MOL      0.000185
    154 C54         0.5130    1.4310    0.5150 c         1 MOL      0.750642
    155 O22         0.4890    0.1840    0.7380 o         1 MOL     -0.786686
    156 O23        -0.5480    2.0850    0.1470 o         1 MOL     -0.786686
    157 H67         4.7410    1.1380   -0.0270 hn        1 MOL      0.071779
    158 H68         4.1370    3.3710    1.9460 h1        1 MOL      0.077883
    159 H69         2.2940    1.9850    2.6600 hc        1 MOL      0.001810
    160 H70         2.9330    0.6780    1.6630 hc        1 MOL      0.001810
    161 H71         2.3290    1.9820   -0.3730 hc        1 MOL      0.019001
    162 H72         1.6570    3.3020    0.5710 hc        1 MOL      0.019001
    163 N14         5.5220    0.4360    2.4880 n         1 MOL     -0.096181
    164 C55         6.5280   -0.1500    3.3950 c3        1 MOL     -0.372721
    165 H73         6.1220   -0.1970    4.4050 h1        1 MOL      0.127701
    166 H74         6.7810   -1.1550    3.0580 h1        1 MOL      0.127701
    167 H75         7.4250    0.4700    3.3930 h1        1 MOL      0.127701
    168 H76         5.3570   -0.0190    1.5940 hn        1 MOL      0.130855
    169 Ca1        -2.0560   -0.1220   -0.1680 Ca        1 MOL      1.748793
    170 O24        -3.8340   -0.7890    1.8850 oh        1 MOL     -0.802041
    171 H77        -4.7630   -0.6060    1.9820 ho        1 MOL      0.396907
    172 H78        -3.4320   -0.4410    2.6790 ho        1 MOL      0.396907
    173 O25        -1.2570   -0.1760    2.9480 oh        1 MOL     -0.802041
    174 H79        -1.3010    0.2620    3.7950 ho        1 MOL      0.396907
    175 H80        -0.3320   -0.1180    2.6880 ho        1 MOL      0.396907
@<TRIPOS>BOND
     1    1    2 1   
     2    1    4 1   
     3    1    5 1   
     4    1    6 1   
     5    2    3 2   
     6    2    7 1   
     7    7    8 1   
     8    7   15 1   
     9    8    9 1   
    10    8   11 1   
    11    8   16 1   
    12    9   10 2   
    13    9   19 1   
    14   11   12 1   
    15   11   17 1   
    16   11   18 1   
    17   12   13 1   
    18   12   14 1   
    19   19   20 1   
    20   19   24 1   
    21   20   21 1   
    22   20   23 1   
    23   20   25 1   
    24   21   22 2   
    25   21   29 1   
    26   23   26 1   
    27   23   27 1   
    28   23   28 1   
    29   29   30 1   
    30   29   37 1   
    31   30   31 1   
    32   30   33 1   
    33   30   38 1   
    34   31   32 2   
    35   31   41 1   
    36   33   34 1   
    37   33   39 1   
    38   33   40 1   
    39   34   35 1   
    40   34   36 1   
    41   41   42 1   
    42   41   45 1   
    43   42   43 1   
    44   42   46 1   
    45   42   47 1   
    46   43   44 2   
    47   43   48 1   
    48   48   49 1   
    49   48   56 1   
    50   49   50 1   
    51   49   52 1   
    52   49   57 1   
    53   50   51 2   
    54   50   62 1   
    55   52   53 1   
    56   52   58 1   
    57   52   59 1   
    58   53   54 1   
    59   53   55 2   
    60   54   60 1   
    61   54   61 1   
    62   62   63 1   
    63   62   66 1   
    64   63   64 1   
    65   63   67 1   
    66   63   68 1   
    67   64   65 2   
    68   64   69 1   
    69   69   70 1   
    70   69   76 1   
    71   70   71 1   
    72   70   73 1   
    73   70   77 1   
    74   71   72 2   
    75   71   83 1   
    76   73   74 1   
    77   73   75 1   
    78   73   78 1   
    79   74   80 1   
    80   74   81 1   
    81   74   82 1   
    82   75   79 1   
    83   83   84 1   
    84   83   91 1   
    85   84   85 1   
    86   84   87 1   
    87   84   92 1   
    88   85   86 2   
    89   85  102 1   
    90   87   88 1   
    91   87   89 1   
    92   87   93 1   
    93   88   90 1   
    94   88   94 1   
    95   88   95 1   
    96   89   96 1   
    97   89   97 1   
    98   89   98 1   
    99   90   99 1   
   100   90  100 1   
   101   90  101 1   
   102  102  103 1   
   103  102  110 1   
   104  103  104 1   
   105  103  106 1   
   106  103  111 1   
   107  104  105 2   
   108  104  114 1   
   109  106  107 1   
   110  106  112 1   
   111  106  113 1   
   112  107  108 1   
   113  107  109 1   
   114  114  115 1   
   115  114  125 1   
   116  115  116 1   
   117  115  118 1   
   118  115  126 1   
   119  116  117 2   
   120  116  134 1   
   121  118  119 1   
   122  118  127 1   
   123  118  128 1   
   124  119  120 ar  
   125  119  121 ar  
   126  120  122 ar  
   127  120  129 1   
   128  121  123 ar  
   129  121  130 1   
   130  122  124 ar  
   131  122  131 1   
   132  123  124 ar  
   133  123  132 1   
   134  124  133 1   
   135  134  135 1   
   136  134  140 1   
   137  135  136 1   
   138  135  138 1   
   139  135  141 1   
   140  136  137 2   
   141  136  148 1   
   142  138  139 1   
   143  138  142 1   
   144  138  143 1   
   145  139  140 1   
   146  139  144 1   
   147  139  145 1   
   148  140  146 1   
   149  140  147 1   
   150  148  149 1   
   151  148  157 1   
   152  149  150 1   
   153  149  152 1   
   154  149  158 1   
   155  150  151 2   
   156  150  163 1   
   157  152  153 1   
   158  152  159 1   
   159  152  160 1   
   160  153  154 1   
   161  153  161 1   
   162  153  162 1   
   163  154  155 1   
   164  154  156 1   
   165  163  164 1   
   166  163  168 1   
   167  164  165 1   
   168  164  166 1   
   169  164  167 1   
   170  170  171 1   
   171  170  172 1   
   172  173  174 1   
   173  173  175 1   
@<TRIPOS>SUBSTRUCTURE
     1 MOL         1 TEMP              0 ****  ****    0 ROOT
