@<TRIPOS>MOLECULE
MOL
  175   173     1     0     0
SMALL
resp


@<TRIPOS>ATOM
      1 C1          0.7490    4.2400    5.1370 c3        1 MOL     -0.372963
      2 C2          0.0530    4.0430    3.7380 c         1 MOL      0.691066
      3 O1          0.6940    4.3620    2.7710 o         1 MOL     -0.507746
      4 H1          0.1500    4.9160    5.7480 hc        1 MOL      0.090778
      5 H2          0.8340    3.2770    5.6390 hc        1 MOL      0.090778
      6 H3          1.7420    4.6650    4.9930 hc        1 MOL      0.090778
      7 N1         -1.2550    3.6580    3.6450 n         1 MOL     -0.641484
      8 C3         -1.9710    3.5580    2.4200 c3        1 MOL      0.207327
      9 C4         -1.9760    4.7310    1.4510 c         1 MOL      0.595114
     10 O2         -1.9400    5.8840    1.8390 o         1 MOL     -0.591973
     11 C5         -3.4260    3.3890    2.8010 c3        1 MOL     -0.214599
     12 C6         -4.1420    2.4550    1.8110 c         1 MOL      0.688673
     13 O3         -5.3390    2.2240    1.9960 o         1 MOL     -0.648357
     14 O4         -3.5360    2.0310    0.7600 o         1 MOL     -0.648357
     15 H4         -1.6860    3.3200    4.5000 hn        1 MOL      0.310038
     16 H5         -1.5370    2.7250    1.8730 h1        1 MOL      0.017074
     17 H6         -3.9690    4.2930    3.0560 hc        1 MOL      0.047511
     18 H7         -3.3420    2.9000    3.7780 hc        1 MOL      0.047511
     19 N2         -2.1630    4.4470    0.2010 n         1 MOL     -0.543933
     20 C7         -2.4610    5.4050   -0.8770 c3        1 MOL      0.254867
     21 C8         -3.4840    4.9210   -1.9690 c         1 MOL      0.450139
     22 O5         -3.6110    5.6000   -3.0490 o         1 MOL     -0.553367
     23 C9         -1.1670    5.9310   -1.5620 c3        1 MOL     -0.154114
     24 H8         -2.0550    3.5050   -0.1300 hn        1 MOL      0.358083
     25 H9         -2.9210    6.2940   -0.4490 h1        1 MOL      0.023300
     26 H10        -0.4760    6.3700   -0.8430 hc        1 MOL      0.035012
     27 H11        -0.5660    5.1650   -2.0610 hc        1 MOL      0.035012
     28 H12        -1.4480    6.7530   -2.2150 hc        1 MOL      0.035012
     29 N3         -4.1800    3.8180   -1.7270 n         1 MOL     -0.492888
     30 C10        -5.0450    3.1910   -2.7170 c3        1 MOL      0.262477
     31 C11        -6.3340    2.5210   -2.2120 c         1 MOL      0.317250
     32 O6         -7.3560    2.4690   -2.9040 o         1 MOL     -0.533761
     33 C12        -4.1690    2.1410   -3.5490 c3        1 MOL     -0.344892
     34 C13        -3.3490    1.3380   -2.6120 c         1 MOL      0.667882
     35 O7         -2.0940    1.3460   -2.6520 o         1 MOL     -0.629914
     36 O8         -3.9460    0.6260   -1.7770 o         1 MOL     -0.629914
     37 H13        -4.0190    3.3040   -0.8640 hn        1 MOL      0.276299
     38 H14        -5.3470    3.9780   -3.4150 h1        1 MOL      0.054429
     39 H15        -3.4820    2.7070   -4.1780 hc        1 MOL      0.091144
     40 H16        -4.8630    1.5660   -4.1660 hc        1 MOL      0.091144
     41 N4         -6.4300    1.9890   -0.9300 n         1 MOL     -0.054880
     42 C14        -7.4920    1.2220   -0.3620 c3        1 MOL     -0.269705
     43 C15        -7.4470   -0.2410   -0.8670 c         1 MOL      0.535330
     44 O9         -8.4350   -0.9320   -0.5440 o         1 MOL     -0.617407
     45 H17        -5.5820    1.9730   -0.3820 hn        1 MOL      0.010932
     46 H18        -8.4380    1.6900   -0.6210 h1        1 MOL      0.139163
     47 H19        -7.5600    1.2110    0.7220 h1        1 MOL      0.139163
     48 N5         -6.3270   -0.7850   -1.3920 n         1 MOL     -0.349430
     49 C16        -6.1270   -2.1620   -2.0060 c3        1 MOL      0.025326
     50 C17        -6.1690   -3.4280   -1.0950 c         1 MOL      0.357727
     51 O10        -6.2670   -4.5880   -1.5480 o         1 MOL     -0.510292
     52 C18        -4.9760   -2.1560   -3.0860 c3        1 MOL     -0.190801
     53 C19        -3.5280   -2.2790   -2.5620 c         1 MOL      0.690355
     54 N6         -2.5820   -2.0090   -3.4430 n         1 MOL     -0.731844
     55 O11        -3.2870   -2.4120   -1.3670 o         1 MOL     -0.523823
     56 H20        -5.5750   -0.1230   -1.4950 hn        1 MOL      0.263647
     57 H21        -7.0630   -2.3320   -2.5400 h1        1 MOL      0.101380
     58 H22        -5.0480   -1.2110   -3.6290 hc        1 MOL      0.048665
     59 H23        -5.1500   -2.9790   -3.7720 hc        1 MOL      0.048665
     60 H24        -2.8380   -1.5750   -4.3190 hn        1 MOL      0.349244
     61 H25        -1.6310   -1.8450   -3.1260 hn        1 MOL      0.349244
     62 N7         -6.1690   -3.1970    0.2070 n         1 MOL     -0.064466
     63 C20        -6.1870   -4.2500    1.1910 c3        1 MOL     -0.397434
     64 C21        -4.8880   -4.8010    1.6420 c         1 MOL      0.629710
     65 O12        -4.8260   -5.6810    2.4580 o         1 MOL     -0.588472
     66 H26        -6.3520   -2.2830    0.5840 hn        1 MOL      0.230627
     67 H27        -6.6360   -5.1210    0.7150 h1        1 MOL      0.143170
     68 H28        -6.6480   -3.9150    2.1180 h1        1 MOL      0.143170
     69 N8         -3.7590   -4.1720    1.1470 n         1 MOL     -0.016462
     70 C22        -2.3780   -4.6980    1.3500 c3        1 MOL     -0.700195
     71 C23        -1.4820   -3.5070    1.6210 c         1 MOL      0.736334
     72 O13        -1.6060   -2.4780    0.9530 o         1 MOL     -0.600014
     73 C24        -1.9450   -5.4950    0.1490 c3        1 MOL      0.788923
     74 C25        -2.7510   -6.8070    0.0440 c3        1 MOL     -0.452299
     75 O14        -2.0670   -4.7750   -1.0450 oh        1 MOL     -0.706287
     76 H29        -3.9220   -3.3550    0.5770 hn        1 MOL      0.023336
     77 H30        -2.3170   -5.2900    2.2560 h1        1 MOL      0.175664
     78 H31        -0.8900   -5.7360    0.2960 h1        1 MOL     -0.078954
     79 H32        -2.4080   -3.8920   -0.9320 ho        1 MOL      0.421281
     80 H33        -3.6240   -6.5880   -0.5680 hc        1 MOL      0.097782
     81 H34        -2.0940   -7.5550   -0.3970 hc        1 MOL      0.097782
     82 H35        -3.0250   -7.1850    1.0250 hc        1 MOL      0.097782
     83 N9         -0.4200   -3.5650    2.4050 n         1 MOL     -0.448531
     84 C26         0.6870   -2.5630    2.3040 c3        1 MOL     -0.020716
     85 C27         1.4820   -2.8460    0.9570 c         1 MOL      0.510491
     86 O15         1.8830   -3.9640    0.6870 o         1 MOL     -0.563636
     87 C28         1.5850   -2.6390    3.5570 c3        1 MOL      0.132650
     88 C29         0.8650   -1.9850    4.7300 c3        1 MOL      0.091959
     89 C30         3.0760   -1.9930    3.3840 c3        1 MOL     -0.110445
     90 C31         1.2620   -2.3610    6.1810 c3        1 MOL     -0.106405
     91 H36        -0.3860   -4.3530    3.0330 hn        1 MOL      0.274919
     92 H37         0.2820   -1.5550    2.2300 h1        1 MOL     -0.026234
     93 H38         1.8420   -3.6890    3.7150 hc        1 MOL     -0.018364
     94 H39        -0.1980   -2.2060    4.6320 hc        1 MOL     -0.018592
     95 H40         0.9600   -0.8970    4.6710 hc        1 MOL     -0.018592
     96 H41         3.0440   -0.9160    3.1870 hc        1 MOL      0.011798
     97 H42         3.5730   -2.0450    4.3530 hc        1 MOL      0.011798
     98 H43         3.7270   -2.4910    2.6740 hc        1 MOL      0.011798
     99 H44         0.8860   -1.6590    6.9280 hc        1 MOL      0.012232
    100 H45         0.8360   -3.3500    6.3960 hc        1 MOL      0.012232
    101 H46         2.3490   -2.4080    6.2170 hc        1 MOL      0.012232
    102 N10         1.7610   -1.8180    0.1710 n         1 MOL     -0.192761
    103 C32         2.6550   -1.8250   -0.9970 c3        1 MOL     -0.064216
    104 C33         4.1260   -1.4330   -0.6920 c         1 MOL      0.261596
    105 O16         4.3850   -0.8280    0.3060 o         1 MOL     -0.185567
    106 C34         1.9750   -0.8730   -2.0440 c3        1 MOL     -0.166720
    107 C35         0.5890   -1.2870   -2.4320 c         1 MOL      0.640840
    108 O17        -0.4300   -1.1230   -1.7180 o         1 MOL     -0.658044
    109 O18         0.2930   -1.5210   -3.6370 o         1 MOL     -0.658044
    110 H47         1.5680   -0.8720    0.4820 hn        1 MOL      0.271196
    111 H48         2.6010   -2.8280   -1.4210 h1        1 MOL      0.090767
    112 H49         2.5140   -0.7500   -2.9830 hc        1 MOL      0.057618
    113 H50         1.9060    0.1350   -1.6470 hc        1 MOL      0.057618
    114 N11         5.1020   -1.7700   -1.4850 n         1 MOL     -0.372971
    115 C36         6.4930   -1.4820   -1.3270 c3        1 MOL      0.141253
    116 C37         6.7370    0.0670   -1.1600 c         1 MOL      0.262259
    117 O19         7.5160    0.3770   -0.2540 o         1 MOL     -0.474378
    118 C38         7.3430   -2.0510   -2.4760 c3        1 MOL     -0.268498
    119 C39         8.7840   -2.0110   -2.2310 ca        1 MOL      0.294875
    120 C40         9.3260   -2.9970   -1.4230 ca        1 MOL     -0.329492
    121 C41         9.6520   -1.0310   -2.8140 ca        1 MOL     -0.329492
    122 C42        10.7080   -2.9610   -1.1220 ca        1 MOL      0.043974
    123 C43        11.0040   -0.9990   -2.4680 ca        1 MOL      0.043974
    124 C44        11.5510   -2.0330   -1.7070 ca        1 MOL     -0.261854
    125 H51         4.8030   -2.2040   -2.3490 hn        1 MOL      0.264300
    126 H52         6.6880   -2.0380   -0.4100 h1        1 MOL      0.100116
    127 H53         7.2340   -1.5050   -3.4180 hc        1 MOL      0.081924
    128 H54         7.1270   -3.0930   -2.7110 hc        1 MOL      0.081924
    129 H55         8.7400   -3.7110   -0.8470 ha        1 MOL      0.157958
    130 H56         9.3070   -0.2190   -3.4330 ha        1 MOL      0.157958
    131 H57        11.0790   -3.7030   -0.4310 ha        1 MOL      0.079090
    132 H58        11.5540   -0.1790   -2.9060 ha        1 MOL      0.079090
    133 H59        12.5990   -2.0710   -1.4210 ha        1 MOL      0.123671
    134 N12         6.1270    1.0190   -1.8710 n         1 MOL      0.040304
    135 C45         6.2190    2.4390   -1.5300 c3        1 MOL      0.016874
    136 C46         5.6840    2.7990   -0.1490 c         1 MOL      0.184999
    137 O20         6.2860    3.5440    0.6560 o         1 MOL     -0.467073
    138 C47         5.5890    3.2230   -2.7140 c3        1 MOL      0.065768
    139 C48         5.6350    2.1770   -3.8280 c3        1 MOL     -0.130743
    140 C49         5.4390    0.8600   -3.1210 c3        1 MOL     -0.099133
    141 H60         7.2520    2.7730   -1.5590 h1        1 MOL      0.067346
    142 H61         4.5540    3.5130   -2.5820 hc        1 MOL      0.022289
    143 H62         6.1910    4.0910   -2.9960 hc        1 MOL      0.022289
    144 H63         4.8250    2.4230   -4.5250 hc        1 MOL      0.044318
    145 H64         6.6420    2.1550   -4.2400 hc        1 MOL      0.044318
    146 H65         4.3840    0.8320   -2.8570 h1        1 MOL      0.072378
    147 H66         5.6960   -0.0020   -3.7360 h1        1 MOL      0.072378
    148 N13         4.6100    2.0920    0.2390 n         1 MOL      0.019432
    149 C50         4.1100    2.2540    1.6160 c3        1 MOL     -0.018184
    150 C51         4.9300    1.6180    2.7020 c         1 MOL      0.370305
    151 O21         5.0830    2.2700    3.7870 o         1 MOL     -0.573775
    152 C52         2.6900    1.8070    1.6630 c3        1 MOL     -0.147091
    153 C53         1.7570    2.3810    0.5630 c3        1 MOL     -0.459658
    154 C54         0.3850    1.6900    0.6230 c         1 MOL      0.710643
    155 O22        -0.5670    2.0470   -0.1340 o         1 MOL     -0.716075
    156 O23         0.1500    0.6020    1.1790 o         1 MOL     -0.716075
    157 H67         4.1000    1.4500   -0.3460 hn        1 MOL      0.040183
    158 H68         4.1750    3.3310    1.8100 h1        1 MOL      0.111307
    159 H69         2.1330    2.0080    2.5750 hc        1 MOL      0.090165
    160 H70         2.7670    0.7200    1.5870 hc        1 MOL      0.090165
    161 H71         2.0560    2.1040   -0.4500 hc        1 MOL      0.177947
    162 H72         1.7510    3.4530    0.7410 hc        1 MOL      0.177947
    163 N14         5.5840    0.5100    2.4650 n         1 MOL      0.078710
    164 C55         6.5090   -0.1620    3.3690 c3        1 MOL     -0.183712
    165 H73         7.1830   -0.7970    2.7930 h1        1 MOL      0.066809
    166 H74         7.0890    0.5810    3.9150 h1        1 MOL      0.066809
    167 H75         5.9480   -0.7760    4.0740 h1        1 MOL      0.066809
    168 H76         5.4310    0.0540    1.5700 hn        1 MOL     -0.011099
    169 Ca1        -2.1380    0.0180   -0.1770 Ca        1 MOL      1.631575
    170 O24        -1.9940    0.2720    2.7270 oh        1 MOL     -0.727498
    171 H77        -1.8940    0.6510    3.6040 ho        1 MOL      0.358228
    172 H78        -1.1720    0.4890    2.2920 ho        1 MOL      0.358228
    173 O25        -4.2220   -0.5620    1.3770 oh        1 MOL     -0.727498
    174 H79        -4.5250    0.3280    1.2560 ho        1 MOL      0.358228
    175 H80        -4.6400   -0.8490    2.1950 ho        1 MOL      0.358228
@<TRIPOS>BOND
     1    1    2 1   
     2    1    4 1   
     3    1    5 1   
     4    1    6 1   
     5    2    3 2   
     6    2    7 1   
     7    7    8 1   
     8    7   15 1   
     9    8    9 1   
    10    8   11 1   
    11    8   16 1   
    12    9   10 2   
    13    9   19 1   
    14   11   12 1   
    15   11   17 1   
    16   11   18 1   
    17   12   13 1   
    18   12   14 1   
    19   19   20 1   
    20   19   24 1   
    21   20   21 1   
    22   20   23 1   
    23   20   25 1   
    24   21   22 2   
    25   21   29 1   
    26   23   26 1   
    27   23   27 1   
    28   23   28 1   
    29   29   30 1   
    30   29   37 1   
    31   30   31 1   
    32   30   33 1   
    33   30   38 1   
    34   31   32 2   
    35   31   41 1   
    36   33   34 1   
    37   33   39 1   
    38   33   40 1   
    39   34   35 1   
    40   34   36 1   
    41   41   42 1   
    42   41   45 1   
    43   42   43 1   
    44   42   46 1   
    45   42   47 1   
    46   43   44 2   
    47   43   48 1   
    48   48   49 1   
    49   48   56 1   
    50   49   50 1   
    51   49   52 1   
    52   49   57 1   
    53   50   51 2   
    54   50   62 1   
    55   52   53 1   
    56   52   58 1   
    57   52   59 1   
    58   53   54 1   
    59   53   55 2   
    60   54   60 1   
    61   54   61 1   
    62   62   63 1   
    63   62   66 1   
    64   63   64 1   
    65   63   67 1   
    66   63   68 1   
    67   64   65 2   
    68   64   69 1   
    69   69   70 1   
    70   69   76 1   
    71   70   71 1   
    72   70   73 1   
    73   70   77 1   
    74   71   72 2   
    75   71   83 1   
    76   73   74 1   
    77   73   75 1   
    78   73   78 1   
    79   74   80 1   
    80   74   81 1   
    81   74   82 1   
    82   75   79 1   
    83   83   84 1   
    84   83   91 1   
    85   84   85 1   
    86   84   87 1   
    87   84   92 1   
    88   85   86 2   
    89   85  102 1   
    90   87   88 1   
    91   87   89 1   
    92   87   93 1   
    93   88   90 1   
    94   88   94 1   
    95   88   95 1   
    96   89   96 1   
    97   89   97 1   
    98   89   98 1   
    99   90   99 1   
   100   90  100 1   
   101   90  101 1   
   102  102  103 1   
   103  102  110 1   
   104  103  104 1   
   105  103  106 1   
   106  103  111 1   
   107  104  105 2   
   108  104  114 1   
   109  106  107 1   
   110  106  112 1   
   111  106  113 1   
   112  107  108 1   
   113  107  109 1   
   114  114  115 1   
   115  114  125 1   
   116  115  116 1   
   117  115  118 1   
   118  115  126 1   
   119  116  117 2   
   120  116  134 1   
   121  118  119 1   
   122  118  127 1   
   123  118  128 1   
   124  119  120 ar  
   125  119  121 ar  
   126  120  122 ar  
   127  120  129 1   
   128  121  123 ar  
   129  121  130 1   
   130  122  124 ar  
   131  122  131 1   
   132  123  124 ar  
   133  123  132 1   
   134  124  133 1   
   135  134  135 1   
   136  134  140 1   
   137  135  136 1   
   138  135  138 1   
   139  135  141 1   
   140  136  137 2   
   141  136  148 1   
   142  138  139 1   
   143  138  142 1   
   144  138  143 1   
   145  139  140 1   
   146  139  144 1   
   147  139  145 1   
   148  140  146 1   
   149  140  147 1   
   150  148  149 1   
   151  148  157 1   
   152  149  150 1   
   153  149  152 1   
   154  149  158 1   
   155  150  151 2   
   156  150  163 1   
   157  152  153 1   
   158  152  159 1   
   159  152  160 1   
   160  153  154 1   
   161  153  161 1   
   162  153  162 1   
   163  154  155 1   
   164  154  156 1   
   165  163  164 1   
   166  163  168 1   
   167  164  165 1   
   168  164  166 1   
   169  164  167 1   
   170  170  171 1   
   171  170  172 1   
   172  173  174 1   
   173  173  175 1   
@<TRIPOS>SUBSTRUCTURE
     1 MOL         1 TEMP              0 ****  ****    0 ROOT
