@<TRIPOS>MOLECULE
MOL
  179   176     1     0     0
SMALL
resp


@<TRIPOS>ATOM
      1 C1         -1.7010   -3.4740    6.8300 c3        1 MOL     -0.396859
      2 C2         -1.7770   -2.9860    5.3650 c         1 MOL      0.694425
      3 O1         -2.8890   -2.6790    4.9350 o         1 MOL     -0.537914
      4 H1         -0.6570   -3.5520    7.1340 hc        1 MOL      0.102837
      5 H2         -2.2150   -2.7630    7.4780 hc        1 MOL      0.102837
      6 H3         -2.1760   -4.4520    6.9130 hc        1 MOL      0.102837
      7 N1         -0.6220   -2.8740    4.6250 n         1 MOL     -0.578820
      8 C3         -0.6330   -2.5210    3.1400 c3        1 MOL      0.006825
      9 C4         -0.8010   -3.7900    2.2070 c         1 MOL      0.649883
     10 O2         -0.3710   -4.8540    2.6360 o         1 MOL     -0.554829
     11 C5          0.7250   -1.8630    2.8530 c3        1 MOL     -0.170078
     12 C6          0.8170   -1.4830    1.3690 c         1 MOL      0.858509
     13 O3          1.9320   -1.5090    0.8940 o         1 MOL     -0.754108
     14 O4         -0.1610   -0.9590    0.7780 o         1 MOL     -0.754108
     15 H4          0.2750   -3.0840    5.0430 hn        1 MOL      0.325775
     16 H5         -1.5440   -2.0210    2.8310 h1        1 MOL      0.046904
     17 H6          1.4660   -2.6370    3.0500 hc        1 MOL      0.052903
     18 H7          0.8130   -1.0180    3.5310 hc        1 MOL      0.052903
     19 N2         -1.2800   -3.6090    0.9570 n         1 MOL     -0.417768
     20 C7         -1.6510   -4.8130    0.1100 c3        1 MOL     -0.313580
     21 C8         -0.4740   -5.6050   -0.5160 c         1 MOL      0.590996
     22 O5         -0.6820   -6.7680   -0.8820 o         1 MOL     -0.580043
     23 C9         -2.7020   -4.2230   -0.9000 c3        1 MOL      0.395744
     24 C10        -3.5000   -5.2930   -1.6510 c3        1 MOL     -0.336794
     25 C11        -4.7410   -4.7040   -2.4190 c3        1 MOL      0.192565
     26 C12        -5.5170   -5.6590   -3.2500 c3        1 MOL     -0.113776
     27 N3         -6.6230   -5.0590   -4.0840 n4        1 MOL     -0.431426
     28 H8         -1.3630   -2.6630    0.6310 hn        1 MOL      0.243764
     29 H9         -2.1240   -5.5570    0.7550 h1        1 MOL      0.173225
     30 H10        -2.2380   -3.5780   -1.6530 hc        1 MOL     -0.030140
     31 H11        -3.3870   -3.6020   -0.3310 hc        1 MOL     -0.030140
     32 H12        -3.8720   -5.9450   -0.8530 hc        1 MOL      0.076326
     33 H13        -2.8550   -5.7810   -2.3860 hc        1 MOL      0.076326
     34 H14        -4.3560   -3.9040   -3.0570 hc        1 MOL      0.012139
     35 H15        -5.4420   -4.2890   -1.6960 hc        1 MOL      0.012139
     36 H16        -5.9270   -6.4430   -2.6200 hx        1 MOL      0.122258
     37 H17        -4.7980   -5.9130   -4.0150 hx        1 MOL      0.122258
     38 H18        -6.3300   -4.3500   -4.7290 hn        1 MOL      0.353629
     39 H19        -6.9530   -5.8790   -4.5790 hn        1 MOL      0.353629
     40 H20        -7.2710   -4.6170   -3.4440 hn        1 MOL      0.353629
     41 N4          0.6930   -5.0210   -0.4660 n         1 MOL     -0.229181
     42 C13         2.0170   -5.5270   -0.8240 c3        1 MOL     -0.016287
     43 C14         3.2190   -5.1990    0.1410 c         1 MOL      0.397246
     44 O6          4.2520   -5.8180    0.0860 o         1 MOL     -0.512694
     45 C15         2.4510   -5.1970   -2.2490 c3        1 MOL     -0.283826
     46 C16         2.2280   -3.7470   -2.6630 c         1 MOL      0.726485
     47 O7          2.5700   -3.4430   -3.8570 o         1 MOL     -0.717268
     48 O8          2.1090   -2.8600   -1.7980 o         1 MOL     -0.717268
     49 H21         0.6360   -4.0590   -0.1390 hn        1 MOL      0.149300
     50 H22         2.0190   -6.6140   -0.8020 h1        1 MOL      0.118355
     51 H23         1.8930   -5.8540   -2.9130 hc        1 MOL      0.109023
     52 H24         3.5310   -5.3480   -2.3150 hc        1 MOL      0.109023
     53 N5          3.2110   -4.1240    0.9510 n         1 MOL      0.017729
     54 C17         4.3460   -3.7900    1.8680 c3        1 MOL     -0.302438
     55 C18         5.4990   -3.1840    1.0920 c         1 MOL      0.693353
     56 O9          6.6870   -3.1900    1.5060 o         1 MOL     -0.603449
     57 H25         2.4810   -3.4230    0.8980 hn        1 MOL     -0.065278
     58 H26         4.6660   -4.7250    2.3310 h1        1 MOL      0.130991
     59 H27         3.9510   -3.0710    2.5880 h1        1 MOL      0.130991
     60 N6          5.2390   -2.5740   -0.0860 n         1 MOL     -0.448538
     61 C19         6.2410   -1.9520   -0.9400 c3        1 MOL      0.001844
     62 C20         6.8580   -0.6000   -0.3300 c         1 MOL      0.389086
     63 O10         7.4560    0.1220   -1.1270 o         1 MOL     -0.488113
     64 C21         5.6220   -1.8310   -2.3080 c3        1 MOL     -0.363566
     65 C22         4.7960   -0.5980   -2.4590 c         1 MOL      0.696741
     66 N7          5.0510    0.1470   -3.4600 n         1 MOL     -0.721225
     67 O11         3.9190   -0.2510   -1.6530 o         1 MOL     -0.607559
     68 H28         4.2950   -2.6520   -0.4310 hn        1 MOL      0.349048
     69 H29         7.1040   -2.5930   -1.1400 h1        1 MOL      0.133327
     70 H30         5.1930   -2.8160   -2.4790 hc        1 MOL      0.142543
     71 H31         6.4110   -1.7430   -3.0630 hc        1 MOL      0.142543
     72 H32         5.7280   -0.1600   -4.1520 hn        1 MOL      0.358101
     73 H33         4.3840    0.8900   -3.5580 hn        1 MOL      0.358101
     74 N8          6.6560   -0.2240    0.9260 n         1 MOL     -0.185791
     75 C23         7.0770    1.0050    1.6020 c3        1 MOL     -0.339013
     76 C24         6.1230    2.1760    1.6410 c         1 MOL      0.510853
     77 O12         6.4190    3.1190    2.4590 o         1 MOL     -0.553313
     78 H34         6.1640   -0.9280    1.4630 hn        1 MOL      0.242161
     79 H35         8.0010    1.4020    1.1690 h1        1 MOL      0.166915
     80 H36         7.2230    0.7550    2.6570 h1        1 MOL      0.166915
     81 N9          5.0060    2.0770    0.9000 n         1 MOL     -0.126739
     82 C25         3.8850    2.9660    1.0650 c3        1 MOL      0.093079
     83 C26         2.4630    2.3030    1.0440 c         1 MOL      0.134172
     84 O13         2.3330    1.2480    0.3800 o         1 MOL     -0.377390
     85 C27         3.8090    3.9690   -0.0840 c3        1 MOL      0.246933
     86 C28         4.9900    4.7820   -0.4350 ca        1 MOL      0.000139
     87 C29         5.9590    4.2260   -1.2630 ca        1 MOL     -0.230366
     88 C30         5.1360    6.1250    0.0470 ca        1 MOL     -0.230366
     89 C31         7.1790    4.9870   -1.5640 ca        1 MOL     -0.196871
     90 C32         6.2590    6.8590   -0.2310 ca        1 MOL     -0.196871
     91 C33         7.3180    6.2820   -1.0390 ca        1 MOL      0.307710
     92 O14         8.4700    7.0050   -1.3620 oh        1 MOL     -0.513935
     93 H37         4.9240    1.2480    0.3260 hn        1 MOL      0.115092
     94 H38         4.0090    3.6100    1.9390 h1        1 MOL      0.029597
     95 H39         3.0930    4.7130    0.2660 hc        1 MOL     -0.063389
     96 H40         3.5010    3.4920   -1.0120 hc        1 MOL     -0.063389
     97 H41         5.8670    3.2800   -1.7640 ha        1 MOL      0.163464
     98 H42         4.3670    6.5900    0.6430 ha        1 MOL      0.163464
     99 H43         7.9480    4.5380   -2.1690 ha        1 MOL      0.136569
    100 H44         6.4000    7.8930    0.0320 ha        1 MOL      0.136569
    101 H45         8.5820    7.7760   -0.8070 ho        1 MOL      0.375350
    102 N10         1.4630    3.0150    1.5070 n         1 MOL     -0.225264
    103 C34         0.0590    2.5440    1.4280 c3        1 MOL      0.032238
    104 C35        -0.8410    3.7760    0.8800 c         1 MOL      0.265780
    105 O15        -0.8000    4.9430    1.3770 o         1 MOL     -0.494037
    106 C36        -0.4020    1.9920    2.7840 c3        1 MOL      0.078991
    107 C37        -1.8770    1.5050    2.8810 c3        1 MOL      0.029937
    108 C38        -0.1670    2.9290    3.9900 c3        1 MOL     -0.401383
    109 C39        -2.2520    0.4880    3.9520 c3        1 MOL     -0.173075
    110 H46         1.6310    3.8710    2.0110 hn        1 MOL      0.307966
    111 H47        -0.1230    1.6940    0.7680 h1        1 MOL      0.016215
    112 H48         0.2760    1.1400    2.9000 hc        1 MOL      0.105012
    113 H49        -2.1010    1.1590    1.8680 hc        1 MOL      0.026867
    114 H50        -2.5840    2.3240    3.0200 hc        1 MOL      0.026867
    115 H51        -0.8110    3.8110    4.0010 hc        1 MOL      0.086073
    116 H52        -0.1220    2.3730    4.9210 hc        1 MOL      0.086073
    117 H53         0.8580    3.3060    3.9390 hc        1 MOL      0.086073
    118 H54        -1.4590   -0.2510    4.0450 hc        1 MOL      0.050719
    119 H55        -2.4460    0.9280    4.9290 hc        1 MOL      0.050719
    120 H56        -3.1500    0.0150    3.5360 hc        1 MOL      0.050719
    121 N11        -1.6170    3.4570   -0.1470 n         1 MOL     -0.084787
    122 C40        -2.6390    4.3990   -0.7060 c3        1 MOL     -0.045569
    123 C41        -4.0670    4.1590   -0.1570 c         1 MOL      0.536787
    124 O16        -4.4600    3.1650    0.4980 o         1 MOL     -0.457774
    125 C42        -2.6690    4.3280   -2.1830 c3        1 MOL     -0.043855
    126 O17        -2.9120    2.9410   -2.6330 oh        1 MOL     -0.542217
    127 H57        -1.6640    2.5220   -0.5200 hn        1 MOL      0.163393
    128 H58        -2.4510    5.4020   -0.3320 h1        1 MOL      0.073102
    129 H59        -1.7070    4.5950   -2.6130 h1        1 MOL      0.082826
    130 H60        -3.5340    4.8930   -2.5070 h1        1 MOL      0.082826
    131 H61        -2.1540    2.4480   -2.2840 ho        1 MOL      0.387205
    132 N12        -4.9960    5.0630   -0.5240 n         1 MOL     -0.422843
    133 C43        -6.3520    5.0610    0.0500 c3        1 MOL      0.127533
    134 C44        -7.1390    3.7510   -0.2390 c         1 MOL      0.388697
    135 O18        -7.8770    3.2720    0.6540 o         1 MOL     -0.509587
    136 C45        -7.2070    6.2720   -0.4420 c3        1 MOL     -0.339215
    137 H62        -4.8290    5.8260   -1.1650 hn        1 MOL      0.271520
    138 H63        -6.1960    5.1720    1.1160 h1        1 MOL      0.094765
    139 H64        -8.1250    6.2490    0.1330 hc        1 MOL      0.108616
    140 H65        -6.7220    7.1970   -0.1300 hc        1 MOL      0.108616
    141 H66        -7.3940    6.2630   -1.5140 hc        1 MOL      0.108616
    142 N13        -7.0600    3.1420   -1.4630 n         1 MOL     -0.332941
    143 C46        -7.8660    1.9940   -1.8390 c3        1 MOL      0.158183
    144 C47        -7.1900    0.7500   -1.1290 c         1 MOL      0.313500
    145 O19        -7.8200   -0.3160   -1.0220 o         1 MOL     -0.510311
    146 C48        -8.0350    2.0060   -3.3680 c3        1 MOL     -0.317870
    147 H67        -6.6090    3.7420   -2.1410 hn        1 MOL      0.263636
    148 H68        -8.8590    2.0630   -1.3960 h1        1 MOL      0.099410
    149 H69        -8.8700    2.6480   -3.6230 hc        1 MOL      0.090253
    150 H70        -7.1500    2.3830   -3.8840 hc        1 MOL      0.090253
    151 H71        -8.1830    0.9920   -3.7390 hc        1 MOL      0.090253
    152 N14        -5.8640    0.8770   -0.7270 n         1 MOL     -0.084929
    153 C49        -5.1280   -0.1390   -0.0090 c3        1 MOL     -0.076207
    154 C50        -5.4060   -0.0970    1.5410 c         1 MOL      0.471690
    155 O20        -5.4550   -1.1280    2.2790 o         1 MOL     -0.534568
    156 C51        -3.6330   -0.0420   -0.3380 c3        1 MOL     -0.029450
    157 C52        -3.3140   -0.2790   -1.8730 c3        1 MOL      0.058428
    158 C53        -1.8030   -0.1720   -1.9670 c         1 MOL      0.609292
    159 O21        -1.1960    0.9190   -1.6660 o         1 MOL     -0.679250
    160 O22        -1.0600   -1.1030   -2.2740 o         1 MOL     -0.679250
    161 H72        -5.4450    1.7670   -0.9230 hn        1 MOL      0.101663
    162 H73        -5.4760   -1.1420   -0.2490 h1        1 MOL      0.036020
    163 H74        -3.0490   -0.7040    0.2940 hc        1 MOL      0.041235
    164 H75        -3.3220    0.9540   -0.0270 hc        1 MOL      0.041235
    165 H76        -3.8500    0.4860   -2.4370 hc        1 MOL     -0.052745
    166 H77        -3.6400   -1.2730   -2.1690 hc        1 MOL     -0.052745
    167 N15        -5.6190    1.1310    2.0810 n         1 MOL     -0.049420
    168 C54        -6.1480    1.4160    3.3800 c3        1 MOL     -0.263127
    169 H78        -7.2370    1.4190    3.3350 h1        1 MOL      0.097605
    170 H79        -5.8160    0.6520    4.0820 h1        1 MOL      0.097605
    171 H80        -5.7950    2.3920    3.7110 h1        1 MOL      0.097605
    172 H81        -5.3950    1.9540    1.5480 hn        1 MOL      0.131529
    173 Ca1         1.1900   -0.4020   -1.3740 Ca        1 MOL      1.749842
    174 O23         1.8570   -0.9760   -3.9390 oh        1 MOL     -0.892551
    175 H82         2.2080   -1.8690   -3.9780 ho        1 MOL      0.412490
    176 H83         1.9350   -0.6530   -4.8410 ho        1 MOL      0.412490
    177 O24         1.5280    1.9610   -2.5330 oh        1 MOL     -0.892551
    178 H84         2.1430    2.6900   -2.4860 ho        1 MOL      0.412490
    179 H85         1.0930    2.0610   -3.3780 ho        1 MOL      0.412490
@<TRIPOS>BOND
     1    1    2 1   
     2    1    4 1   
     3    1    5 1   
     4    1    6 1   
     5    2    3 2   
     6    2    7 1   
     7    7    8 1   
     8    7   15 1   
     9    8    9 1   
    10    8   11 1   
    11    8   16 1   
    12    9   10 2   
    13    9   19 1   
    14   11   12 1   
    15   11   17 1   
    16   11   18 1   
    17   12   13 1   
    18   12   14 1   
    19   19   20 1   
    20   19   28 1   
    21   20   21 1   
    22   20   23 1   
    23   20   29 1   
    24   21   22 2   
    25   21   41 1   
    26   23   24 1   
    27   23   30 1   
    28   23   31 1   
    29   24   25 1   
    30   24   32 1   
    31   24   33 1   
    32   25   26 1   
    33   25   34 1   
    34   25   35 1   
    35   26   27 1   
    36   26   36 1   
    37   26   37 1   
    38   27   38 1   
    39   27   39 1   
    40   27   40 1   
    41   41   42 1   
    42   41   49 1   
    43   42   43 1   
    44   42   45 1   
    45   42   50 1   
    46   43   44 2   
    47   43   53 1   
    48   45   46 1   
    49   45   51 1   
    50   45   52 1   
    51   46   47 1   
    52   46   48 1   
    53   53   54 1   
    54   53   57 1   
    55   54   55 1   
    56   54   58 1   
    57   54   59 1   
    58   55   56 2   
    59   55   60 1   
    60   60   61 1   
    61   60   68 1   
    62   61   62 1   
    63   61   64 1   
    64   61   69 1   
    65   62   63 2   
    66   62   74 1   
    67   64   65 1   
    68   64   70 1   
    69   64   71 1   
    70   65   66 1   
    71   65   67 2   
    72   66   72 1   
    73   66   73 1   
    74   74   75 1   
    75   74   78 1   
    76   75   76 1   
    77   75   79 1   
    78   75   80 1   
    79   76   77 2   
    80   76   81 1   
    81   81   82 1   
    82   81   93 1   
    83   82   83 1   
    84   82   85 1   
    85   82   94 1   
    86   83   84 2   
    87   83  102 1   
    88   85   86 1   
    89   85   95 1   
    90   85   96 1   
    91   86   87 ar  
    92   86   88 ar  
    93   87   89 ar  
    94   87   97 1   
    95   88   90 ar  
    96   88   98 1   
    97   89   91 ar  
    98   89   99 1   
    99   90   91 ar  
   100   90  100 1   
   101   91   92 1   
   102   92  101 1   
   103  102  103 1   
   104  102  110 1   
   105  103  104 1   
   106  103  106 1   
   107  103  111 1   
   108  104  105 2   
   109  104  121 1   
   110  106  107 1   
   111  106  108 1   
   112  106  112 1   
   113  107  109 1   
   114  107  113 1   
   115  107  114 1   
   116  108  115 1   
   117  108  116 1   
   118  108  117 1   
   119  109  118 1   
   120  109  119 1   
   121  109  120 1   
   122  121  122 1   
   123  121  127 1   
   124  122  123 1   
   125  122  125 1   
   126  122  128 1   
   127  123  124 2   
   128  123  132 1   
   129  125  126 1   
   130  125  129 1   
   131  125  130 1   
   132  126  131 1   
   133  132  133 1   
   134  132  137 1   
   135  133  134 1   
   136  133  136 1   
   137  133  138 1   
   138  134  135 2   
   139  134  142 1   
   140  136  139 1   
   141  136  140 1   
   142  136  141 1   
   143  142  143 1   
   144  142  147 1   
   145  143  144 1   
   146  143  146 1   
   147  143  148 1   
   148  144  145 2   
   149  144  152 1   
   150  146  149 1   
   151  146  150 1   
   152  146  151 1   
   153  152  153 1   
   154  152  161 1   
   155  153  154 1   
   156  153  156 1   
   157  153  162 1   
   158  154  155 2   
   159  154  167 1   
   160  156  157 1   
   161  156  163 1   
   162  156  164 1   
   163  157  158 1   
   164  157  165 1   
   165  157  166 1   
   166  158  159 1   
   167  158  160 1   
   168  167  168 1   
   169  167  172 1   
   170  168  169 1   
   171  168  170 1   
   172  168  171 1   
   173  174  175 1   
   174  174  176 1   
   175  177  178 1   
   176  177  179 1   
@<TRIPOS>SUBSTRUCTURE
     1 MOL         1 TEMP              0 ****  ****    0 ROOT
