@<TRIPOS>MOLECULE
MOL
  175   173     1     0     0
SMALL
resp


@<TRIPOS>ATOM
      1 C1          0.7440    4.0410    5.2790 c3        1 MOL     -0.375750
      2 C2          0.1150    3.9580    3.9350 c         1 MOL      0.785563
      3 O1          0.6940    4.2680    2.9190 o         1 MOL     -0.579400
      4 H1         -0.0200    4.2660    6.0230 hc        1 MOL      0.088630
      5 H2          1.2160    3.0890    5.5200 hc        1 MOL      0.088630
      6 H3          1.4950    4.8310    5.2810 hc        1 MOL      0.088630
      7 N1         -1.1730    3.6340    3.8470 n         1 MOL     -0.694157
      8 C3         -1.8900    3.4250    2.6530 c3        1 MOL      0.012550
      9 C4         -2.1530    4.7450    1.9320 c         1 MOL      0.741930
     10 O2         -2.3130    5.8520    2.4700 o         1 MOL     -0.587825
     11 C5         -3.2890    2.7070    2.9420 c3        1 MOL     -0.209432
     12 C6         -4.1280    2.4760    1.7090 c         1 MOL      0.607671
     13 O3         -5.3000    2.8330    1.7210 o         1 MOL     -0.622825
     14 O4         -3.5570    2.0980    0.6590 o         1 MOL     -0.622825
     15 H4         -1.7160    3.6450    4.6950 hn        1 MOL      0.326814
     16 H5         -1.3260    2.7040    2.0580 h1        1 MOL      0.193997
     17 H6         -3.7950    3.4190    3.5950 hc        1 MOL      0.037300
     18 H7         -3.3080    1.7950    3.5380 hc        1 MOL      0.037300
     19 N2         -2.2480    4.4980    0.6190 n         1 MOL     -0.606710
     20 C7         -2.5190    5.5350   -0.3760 c3        1 MOL      0.119488
     21 C8         -3.3400    5.0120   -1.5940 c         1 MOL      0.670645
     22 O5         -3.4230    5.5910   -2.6680 o         1 MOL     -0.577558
     23 C9         -1.1750    6.1770   -0.7800 c3        1 MOL     -0.221939
     24 H8         -2.1180    3.5480    0.3100 hn        1 MOL      0.345813
     25 H9         -3.0990    6.3750   -0.0000 h1        1 MOL      0.046402
     26 H10        -0.4970    5.4530   -1.2310 hc        1 MOL      0.058410
     27 H11        -1.2960    7.0280   -1.4370 hc        1 MOL      0.058410
     28 H12        -0.7380    6.4810    0.1680 hc        1 MOL      0.058410
     29 N3         -4.1850    3.9100   -1.4370 n         1 MOL     -0.649341
     30 C10        -5.1370    3.4410   -2.5440 c3        1 MOL      0.132502
     31 C11        -6.3580    2.5760   -2.1250 c         1 MOL      0.330009
     32 O6         -7.3190    2.4550   -2.8800 o         1 MOL     -0.540789
     33 C12        -4.3560    2.6680   -3.6150 c3        1 MOL     -0.094036
     34 C13        -3.3510    1.6670   -2.9990 c         1 MOL      0.562972
     35 O7         -3.7220    0.9070   -2.0320 o         1 MOL     -0.628016
     36 O8         -2.1480    1.7470   -3.3640 o         1 MOL     -0.628016
     37 H13        -3.8990    3.2390   -0.7390 hn        1 MOL      0.376550
     38 H14        -5.4940    4.3680   -3.0100 h1        1 MOL      0.076494
     39 H15        -3.8970    3.4020   -4.2770 hc        1 MOL      0.025600
     40 H16        -5.1170    2.1160   -4.1760 hc        1 MOL      0.025600
     41 N4         -6.2650    1.9850   -0.9080 n         1 MOL     -0.002296
     42 C14        -7.2930    1.1190   -0.3220 c3        1 MOL     -0.261870
     43 C15        -7.2600   -0.3260   -0.8660 c         1 MOL      0.549894
     44 O9         -8.2700   -0.9920   -0.7860 o         1 MOL     -0.615173
     45 H17        -5.4110    2.1170   -0.3910 hn        1 MOL      0.025747
     46 H18        -8.3170    1.4480   -0.5220 h1        1 MOL      0.109358
     47 H19        -7.1500    0.9580    0.7490 h1        1 MOL      0.109358
     48 N5         -6.0520   -0.7580   -1.3430 n         1 MOL     -0.140944
     49 C16        -6.0440   -2.0220   -2.0480 c3        1 MOL     -0.106674
     50 C17        -6.0980   -3.2100   -1.1480 c         1 MOL      0.500457
     51 O10        -5.6810   -4.3060   -1.4990 o         1 MOL     -0.521636
     52 C18        -4.8430   -2.0140   -3.0910 c3        1 MOL     -0.101040
     53 C19        -3.4720   -2.0880   -2.5340 c         1 MOL      0.423217
     54 N6         -2.4280   -2.2190   -3.3070 n         1 MOL     -0.654922
     55 O11        -3.3150   -2.1640   -1.3210 o         1 MOL     -0.264506
     56 H20        -5.2590   -0.1480   -1.2480 hn        1 MOL      0.121088
     57 H21        -6.9650   -2.1030   -2.6180 h1        1 MOL      0.104580
     58 H22        -4.9440   -1.1210   -3.7030 hc        1 MOL      0.049015
     59 H23        -4.9080   -2.8570   -3.7840 hc        1 MOL      0.049015
     60 H24        -2.4950   -2.1750   -4.3150 hn        1 MOL      0.354681
     61 H25        -1.5220   -2.3600   -2.8880 hn        1 MOL      0.354681
     62 N7         -6.4710   -3.0040    0.0850 n         1 MOL     -0.310207
     63 C20        -6.5920   -4.0670    1.1150 c3        1 MOL     -0.218511
     64 C21        -5.2250   -4.5820    1.7150 c         1 MOL      0.483452
     65 O12        -5.1960   -5.5450    2.5240 o         1 MOL     -0.572736
     66 H26        -6.6770   -2.0710    0.4360 hn        1 MOL      0.313041
     67 H27        -7.0630   -4.9430    0.6760 h1        1 MOL      0.127172
     68 H28        -7.2400   -3.6740    1.8980 h1        1 MOL      0.127172
     69 N8         -4.0370   -4.0430    1.2590 n         1 MOL     -0.080210
     70 C22        -2.5680   -4.4880    1.4690 c3        1 MOL     -0.400077
     71 C23        -1.5000   -3.3780    1.5110 c         1 MOL      0.687255
     72 O13        -1.7310   -2.2870    0.9890 o         1 MOL     -0.630602
     73 C24        -2.2140   -5.4690    0.3220 c3        1 MOL      0.648162
     74 C25        -3.1020   -6.6870    0.2160 c3        1 MOL     -0.459659
     75 O14        -2.2430   -4.7770   -0.9220 oh        1 MOL     -0.578076
     76 H29        -4.2260   -3.2780    0.6320 hn        1 MOL     -0.038643
     77 H30        -2.5980   -5.0830    2.3720 h1        1 MOL      0.120699
     78 H31        -1.1720   -5.7760    0.4490 h1        1 MOL     -0.078646
     79 H32        -2.2610   -3.8420   -0.7200 ho        1 MOL      0.281337
     80 H33        -3.8370   -6.5280   -0.5790 hc        1 MOL      0.110402
     81 H34        -2.4260   -7.4720   -0.1280 hc        1 MOL      0.110402
     82 H35        -3.4690   -7.0900    1.1580 hc        1 MOL      0.110402
     83 N9         -0.3550   -3.6650    2.1000 n         1 MOL     -0.470897
     84 C26         0.7800   -2.7590    1.9890 c3        1 MOL      0.093238
     85 C27         1.4670   -3.0760    0.6770 c         1 MOL      0.420525
     86 O15         1.6740   -4.2140    0.2730 o         1 MOL     -0.575820
     87 C28         1.7250   -2.9750    3.1900 c3        1 MOL      0.128430
     88 C29         1.3020   -2.0710    4.3980 c3        1 MOL     -0.073853
     89 C30         3.1940   -2.7640    2.8160 c3        1 MOL     -0.308412
     90 C31         1.6520   -2.7160    5.7430 c3        1 MOL      0.011639
     91 H36        -0.3100   -4.5420    2.6090 hn        1 MOL      0.267505
     92 H37         0.4460   -1.7260    2.0180 h1        1 MOL      0.059673
     93 H38         1.7380   -4.0290    3.4710 hc        1 MOL      0.015307
     94 H39         0.2290   -1.9200    4.3250 hc        1 MOL      0.014785
     95 H40         1.8150   -1.1060    4.3270 hc        1 MOL      0.014785
     96 H41         3.5510   -3.4330    2.0390 hc        1 MOL      0.065486
     97 H42         3.2550   -1.7480    2.4270 hc        1 MOL      0.065486
     98 H43         3.8790   -2.8110    3.6660 hc        1 MOL      0.065486
     99 H44         1.2770   -3.7360    5.7190 hc        1 MOL     -0.005237
    100 H45         2.7300   -2.7520    5.9320 hc        1 MOL     -0.005237
    101 H46         1.2810   -2.2300    6.6400 hc        1 MOL     -0.005237
    102 N10         1.9000   -2.0470    0.0200 n         1 MOL     -0.005493
    103 C32         2.7720   -2.0140   -1.1770 c3        1 MOL     -0.018646
    104 C33         4.1700   -1.5180   -0.9370 c         1 MOL      0.306544
    105 O16         4.3510   -0.9860    0.1400 o         1 MOL     -0.236502
    106 C34         2.0410   -1.0260   -2.1400 c3        1 MOL     -0.227717
    107 C35         0.6520   -1.3970   -2.5150 c         1 MOL      0.724488
    108 O17        -0.3070   -1.1040   -1.8030 o         1 MOL     -0.700114
    109 O18         0.4600   -1.9180   -3.6300 o         1 MOL     -0.700114
    110 H47         1.7310   -1.1760    0.4960 hn        1 MOL      0.063447
    111 H48         2.7480   -3.0070   -1.6440 h1        1 MOL      0.079256
    112 H49         2.6410   -0.9910   -3.0600 hc        1 MOL      0.079995
    113 H50         2.1020   -0.0240   -1.7280 hc        1 MOL      0.079995
    114 N11         5.1980   -1.7320   -1.8140 n         1 MOL     -0.512321
    115 C36         6.4920   -1.2840   -1.4200 c3        1 MOL      0.206531
    116 C37         6.6890    0.2080   -1.1540 c         1 MOL      0.354397
    117 O19         7.3650    0.5070   -0.1840 o         1 MOL     -0.449949
    118 C38         7.5460   -1.7590   -2.5200 c3        1 MOL     -0.319938
    119 C39         9.0220   -1.6300   -2.1070 ca        1 MOL      0.126210
    120 C40         9.5560   -2.3170   -0.9750 ca        1 MOL     -0.155696
    121 C41         9.9340   -0.8820   -2.9240 ca        1 MOL     -0.155696
    122 C42        10.8780   -2.1260   -0.5840 ca        1 MOL     -0.141212
    123 C43        11.2800   -0.7480   -2.5090 ca        1 MOL     -0.141212
    124 C44        11.7250   -1.3120   -1.3070 ca        1 MOL     -0.056526
    125 H51         5.0110   -2.3480   -2.5900 hn        1 MOL      0.337692
    126 H52         6.7130   -1.7680   -0.4660 h1        1 MOL      0.094925
    127 H53         7.2880   -1.3760   -3.4990 hc        1 MOL      0.103389
    128 H54         7.3360   -2.7710   -2.8630 hc        1 MOL      0.103389
    129 H55         8.9050   -2.9850   -0.4200 ha        1 MOL      0.116139
    130 H56         9.6410   -0.3780   -3.8340 ha        1 MOL      0.116139
    131 H57        11.1990   -2.6080    0.3230 ha        1 MOL      0.116345
    132 H58        11.9150   -0.1450   -3.1430 ha        1 MOL      0.116345
    133 H59        12.7560   -1.1930   -0.9990 ha        1 MOL      0.084222
    134 N12         6.0510    1.1830   -1.9360 n         1 MOL     -0.072291
    135 C45         5.8270    2.5690   -1.5940 c3        1 MOL     -0.120551
    136 C46         5.4850    2.8100   -0.1130 c         1 MOL      0.320917
    137 O20         5.8290    3.7540    0.5460 o         1 MOL     -0.476976
    138 C47         4.7230    3.0880   -2.4810 c3        1 MOL      0.129307
    139 C48         4.8640    2.2670   -3.7570 c3        1 MOL     -0.071813
    140 C49         5.5090    0.9960   -3.2860 c3        1 MOL      0.111548
    141 H60         6.7880    3.0160   -1.8560 h1        1 MOL      0.056567
    142 H61         3.7810    2.8310   -1.9910 hc        1 MOL      0.004866
    143 H62         4.7180    4.1670   -2.6710 hc        1 MOL      0.004866
    144 H63         3.9220    2.1830   -4.2950 hc        1 MOL      0.027885
    145 H64         5.5630    2.7930   -4.4130 hc        1 MOL      0.027885
    146 H65         4.7850    0.1900   -3.3830 h1        1 MOL     -0.018566
    147 H66         6.3350    0.6850   -3.9420 h1        1 MOL     -0.018566
    148 N13         4.6150    1.8780    0.3830 n         1 MOL      0.061554
    149 C50         4.1170    1.9960    1.6580 c3        1 MOL     -0.210909
    150 C51         5.0460    1.3290    2.7100 c         1 MOL      0.490752
    151 O21         5.2950    1.8720    3.7720 o         1 MOL     -0.579140
    152 C52         2.7080    1.4460    1.7490 c3        1 MOL     -0.009875
    153 C53         1.7910    2.0020    0.6230 c3        1 MOL      0.013558
    154 C54         0.3950    1.4320    0.4870 c         1 MOL      0.428995
    155 O22         0.0450    0.4170    1.0430 o         1 MOL     -0.651281
    156 O23        -0.4710    2.0000   -0.2080 o         1 MOL     -0.651281
    157 H67         4.5200    1.0550   -0.1940 hn        1 MOL      0.060383
    158 H68         4.0300    3.0560    1.8990 h1        1 MOL      0.118856
    159 H69         2.3100    1.6830    2.7410 hc        1 MOL      0.032050
    160 H70         2.7680    0.3710    1.6630 hc        1 MOL      0.032050
    161 H71         2.2850    1.8630   -0.3280 hc        1 MOL      0.039863
    162 H72         1.7540    3.0880    0.7260 hc        1 MOL      0.039863
    163 N14         5.6890    0.2250    2.4290 n         1 MOL      0.010000
    164 C55         6.6810   -0.4170    3.2710 c3        1 MOL     -0.333480
    165 H73         7.6390    0.0890    3.1540 h1        1 MOL      0.111706
    166 H74         6.3650   -0.3590    4.3130 h1        1 MOL      0.111706
    167 H75         6.7850   -1.4630    2.9790 h1        1 MOL      0.111706
    168 H76         5.4910   -0.1600    1.5140 hn        1 MOL     -0.003628
    169 Ca1        -2.1590   -0.0140   -0.3460 Ca        1 MOL      1.596616
    170 O24        -4.3700   -1.0680    1.5330 oh        1 MOL     -0.666622
    171 H77        -3.6300   -0.9840    2.1350 ho        1 MOL      0.337569
    172 H78        -5.1330   -1.1270    2.1100 ho        1 MOL      0.337569
    173 O25        -2.1390    0.0180    2.4830 oh        1 MOL     -0.666622
    174 H79        -1.1990    0.0410    2.2720 ho        1 MOL      0.337569
    175 H80        -2.1810    0.3400    3.3840 ho        1 MOL      0.337569
@<TRIPOS>BOND
     1    1    2 1   
     2    1    4 1   
     3    1    5 1   
     4    1    6 1   
     5    2    3 2   
     6    2    7 1   
     7    7    8 1   
     8    7   15 1   
     9    8    9 1   
    10    8   11 1   
    11    8   16 1   
    12    9   10 2   
    13    9   19 1   
    14   11   12 1   
    15   11   17 1   
    16   11   18 1   
    17   12   13 1   
    18   12   14 1   
    19   19   20 1   
    20   19   24 1   
    21   20   21 1   
    22   20   23 1   
    23   20   25 1   
    24   21   22 2   
    25   21   29 1   
    26   23   26 1   
    27   23   27 1   
    28   23   28 1   
    29   29   30 1   
    30   29   37 1   
    31   30   31 1   
    32   30   33 1   
    33   30   38 1   
    34   31   32 2   
    35   31   41 1   
    36   33   34 1   
    37   33   39 1   
    38   33   40 1   
    39   34   35 1   
    40   34   36 1   
    41   41   42 1   
    42   41   45 1   
    43   42   43 1   
    44   42   46 1   
    45   42   47 1   
    46   43   44 2   
    47   43   48 1   
    48   48   49 1   
    49   48   56 1   
    50   49   50 1   
    51   49   52 1   
    52   49   57 1   
    53   50   51 2   
    54   50   62 1   
    55   52   53 1   
    56   52   58 1   
    57   52   59 1   
    58   53   54 1   
    59   53   55 2   
    60   54   60 1   
    61   54   61 1   
    62   62   63 1   
    63   62   66 1   
    64   63   64 1   
    65   63   67 1   
    66   63   68 1   
    67   64   65 2   
    68   64   69 1   
    69   69   70 1   
    70   69   76 1   
    71   70   71 1   
    72   70   73 1   
    73   70   77 1   
    74   71   72 2   
    75   71   83 1   
    76   73   74 1   
    77   73   75 1   
    78   73   78 1   
    79   74   80 1   
    80   74   81 1   
    81   74   82 1   
    82   75   79 1   
    83   83   84 1   
    84   83   91 1   
    85   84   85 1   
    86   84   87 1   
    87   84   92 1   
    88   85   86 2   
    89   85  102 1   
    90   87   88 1   
    91   87   89 1   
    92   87   93 1   
    93   88   90 1   
    94   88   94 1   
    95   88   95 1   
    96   89   96 1   
    97   89   97 1   
    98   89   98 1   
    99   90   99 1   
   100   90  100 1   
   101   90  101 1   
   102  102  103 1   
   103  102  110 1   
   104  103  104 1   
   105  103  106 1   
   106  103  111 1   
   107  104  105 2   
   108  104  114 1   
   109  106  107 1   
   110  106  112 1   
   111  106  113 1   
   112  107  108 1   
   113  107  109 1   
   114  114  115 1   
   115  114  125 1   
   116  115  116 1   
   117  115  118 1   
   118  115  126 1   
   119  116  117 2   
   120  116  134 1   
   121  118  119 1   
   122  118  127 1   
   123  118  128 1   
   124  119  120 ar  
   125  119  121 ar  
   126  120  122 ar  
   127  120  129 1   
   128  121  123 ar  
   129  121  130 1   
   130  122  124 ar  
   131  122  131 1   
   132  123  124 ar  
   133  123  132 1   
   134  124  133 1   
   135  134  135 1   
   136  134  140 1   
   137  135  136 1   
   138  135  138 1   
   139  135  141 1   
   140  136  137 2   
   141  136  148 1   
   142  138  139 1   
   143  138  142 1   
   144  138  143 1   
   145  139  140 1   
   146  139  144 1   
   147  139  145 1   
   148  140  146 1   
   149  140  147 1   
   150  148  149 1   
   151  148  157 1   
   152  149  150 1   
   153  149  152 1   
   154  149  158 1   
   155  150  151 2   
   156  150  163 1   
   157  152  153 1   
   158  152  159 1   
   159  152  160 1   
   160  153  154 1   
   161  153  161 1   
   162  153  162 1   
   163  154  155 1   
   164  154  156 1   
   165  163  164 1   
   166  163  168 1   
   167  164  165 1   
   168  164  166 1   
   169  164  167 1   
   170  170  171 1   
   171  170  172 1   
   172  173  174 1   
   173  173  175 1   
@<TRIPOS>SUBSTRUCTURE
     1 MOL         1 TEMP              0 ****  ****    0 ROOT
