@<TRIPOS>MOLECULE
MOL
  189   185     1     0     0
SMALL
resp


@<TRIPOS>ATOM
      1 C1         -0.4420    2.1800    6.1910 c3        1 MOL     -0.329821
      2 C2         -0.6480    1.8510    4.6940 c         1 MOL      0.690195
      3 O1          0.1990    2.3180    3.9060 o         1 MOL     -0.607149
      4 H1          0.5790    2.5290    6.3480 hc        1 MOL      0.085942
      5 H2         -1.1430    2.9580    6.4930 hc        1 MOL      0.085942
      6 H3         -0.6140    1.2830    6.7870 hc        1 MOL      0.085942
      7 N1         -1.7960    1.3510    4.2530 n         1 MOL     -0.644389
      8 C3         -2.3540    1.4950    2.9080 c3        1 MOL      0.369817
      9 C4         -2.6090    2.9350    2.5890 c         1 MOL      0.513364
     10 O2         -3.3410    3.5570    3.3350 o         1 MOL     -0.578000
     11 C5         -3.5830    0.6560    2.7420 c3        1 MOL     -0.526653
     12 C6         -4.1780    0.6880    1.3640 c         1 MOL      0.851340
     13 O3         -5.4030    0.4730    1.2580 o         1 MOL     -0.655110
     14 O4         -3.4950    1.0270    0.3990 o         1 MOL     -0.655110
     15 H4         -2.3310    0.7990    4.9090 hn        1 MOL      0.327128
     16 H5         -1.5490    1.1410    2.2500 h1        1 MOL     -0.004566
     17 H6         -4.2670    0.9820    3.5220 hc        1 MOL      0.120778
     18 H7         -3.2650   -0.3590    2.9520 hc        1 MOL      0.120778
     19 N2         -2.1310    3.5110    1.4600 n         1 MOL     -0.189623
     20 C7         -2.1480    4.9030    1.0030 c3        1 MOL      0.017140
     21 C8         -2.8720    5.1900   -0.3380 c         1 MOL      0.518430
     22 O5         -2.9340    6.3920   -0.6900 o         1 MOL     -0.574079
     23 C9         -0.6260    5.4280    1.1330 c3        1 MOL      0.023358
     24 C10        -0.5920    6.9800    1.3580 c3        1 MOL     -0.064360
     25 C11         0.8220    7.5240    1.2760 c3        1 MOL     -0.048565
     26 C12         1.5870    7.0400    2.4970 c3        1 MOL      0.072184
     27 N3          2.9500    7.6540    2.5700 n4        1 MOL     -0.446482
     28 H8         -1.6590    2.8410    0.8690 hn        1 MOL      0.127455
     29 H9         -2.7220    5.4110    1.7800 h1        1 MOL      0.049145
     30 H10        -0.0870    5.3780    0.1880 hc        1 MOL      0.022318
     31 H11        -0.0140    4.8710    1.8480 hc        1 MOL      0.022318
     32 H12        -1.0070    7.3360    2.3060 hc        1 MOL      0.044212
     33 H13        -1.0630    7.4720    0.5170 hc        1 MOL      0.044212
     34 H14         0.8790    8.6150    1.2780 hc        1 MOL      0.030133
     35 H15         1.3920    7.1770    0.4050 hc        1 MOL      0.030133
     36 H16         1.7260    5.9580    2.4440 hx        1 MOL      0.089672
     37 H17         1.0380    7.1330    3.4320 hx        1 MOL      0.089672
     38 H18         2.9490    8.6040    2.2240 hn        1 MOL      0.338821
     39 H19         3.2960    7.7000    3.5240 hn        1 MOL      0.338821
     40 H20         3.6510    7.1770    2.0170 hn        1 MOL      0.338821
     41 N4         -3.5100    4.1790   -0.9460 n         1 MOL     -0.261146
     42 C13        -4.1850    4.2440   -2.2370 c3        1 MOL     -0.048793
     43 C14        -5.4820    3.3970   -2.3070 c         1 MOL      0.576350
     44 O6         -6.2620    3.7820   -3.1610 o         1 MOL     -0.513455
     45 C15        -3.2680    3.9520   -3.4080 c3        1 MOL     -0.133530
     46 C16        -2.6720    2.5880   -3.5170 c         1 MOL      0.724829
     47 O7         -2.0680    2.2890   -4.5480 o         1 MOL     -0.672717
     48 O8         -2.5660    1.8030   -2.5050 o         1 MOL     -0.672717
     49 H21        -3.5660    3.2530   -0.5400 hn        1 MOL      0.090234
     50 H22        -4.5300    5.2640   -2.4000 h1        1 MOL      0.090675
     51 H23        -2.4760    4.6940   -3.4780 hc        1 MOL      0.052481
     52 H24        -3.8880    4.0880   -4.2860 hc        1 MOL      0.052481
     53 N5         -5.7500    2.4090   -1.3480 n         1 MOL     -0.461917
     54 C17        -7.1210    2.0270   -0.9960 c3        1 MOL     -0.061107
     55 C18        -7.5280    0.6600   -1.4340 c         1 MOL      0.521462
     56 O9         -8.6770    0.4400   -1.7670 o         1 MOL     -0.583744
     57 H25        -5.0650    2.1300   -0.6700 hn        1 MOL      0.298938
     58 H26        -7.7990    2.7470   -1.4650 h1        1 MOL      0.090882
     59 H27        -7.3400    2.1180    0.0690 h1        1 MOL      0.090882
     60 N6         -6.5660   -0.2680   -1.5380 n         1 MOL     -0.094095
     61 C19        -6.7600   -1.5780   -2.1380 c3        1 MOL     -0.130768
     62 C20        -6.9010   -2.7490   -1.1070 c         1 MOL      0.418797
     63 O10        -7.1190   -3.9520   -1.4850 o         1 MOL     -0.517343
     64 C21        -5.5530   -1.7550   -3.1650 c3        1 MOL     -0.087771
     65 C22        -4.1580   -1.6250   -2.5400 c         1 MOL      0.709101
     66 O11        -3.2290   -1.1110   -3.1950 o         1 MOL     -0.701197
     67 O12        -3.8390   -2.1100   -1.4410 o         1 MOL     -0.701197
     68 H28        -5.6920   -0.1250   -1.0570 hn        1 MOL     -0.048958
     69 H29        -7.6510   -1.5650   -2.7660 h1        1 MOL      0.153944
     70 H30        -5.5950   -0.8530   -3.7730 hc        1 MOL      0.044417
     71 H31        -5.6840   -2.5770   -3.8670 hc        1 MOL      0.044417
     72 N7         -6.7160   -2.4560    0.2200 n         1 MOL     -0.259806
     73 C23        -6.7690   -3.4490    1.3170 c3        1 MOL     -0.105330
     74 C24        -5.5370   -4.3040    1.5680 c         1 MOL      0.541208
     75 O13        -5.6160   -5.4570    1.9560 o         1 MOL     -0.526735
     76 H32        -6.3480   -1.5450    0.4380 hn        1 MOL      0.226004
     77 H33        -7.6770   -4.0160    1.1020 h1        1 MOL      0.080160
     78 H34        -6.9250   -2.9730    2.2810 h1        1 MOL      0.080160
     79 N8         -4.4140   -3.7500    0.9790 n         1 MOL     -0.288394
     80 C25        -3.0820   -4.3600    1.0380 c3        1 MOL     -0.325631
     81 C26        -1.9220   -3.3210    1.2490 c         1 MOL      0.786739
     82 O14        -2.0130   -2.1110    0.9640 o         1 MOL     -0.698950
     83 C27        -2.7250   -5.1950   -0.2310 c3        1 MOL      0.488349
     84 C28        -3.6000   -6.4280   -0.3390 c3        1 MOL     -0.671704
     85 O15        -2.7840   -4.5020   -1.4030 oh        1 MOL     -0.640301
     86 H35        -4.3590   -2.7810    0.6980 hn        1 MOL      0.272927
     87 H36        -3.1090   -5.0980    1.8410 h1        1 MOL      0.124861
     88 H37        -1.6740   -5.4840   -0.1350 h1        1 MOL      0.011512
     89 H38        -3.4710   -3.8230   -1.4030 ho        1 MOL      0.439757
     90 H39        -4.6700   -6.2150   -0.4110 hc        1 MOL      0.180310
     91 H40        -3.3160   -6.8680   -1.2850 hc        1 MOL      0.180310
     92 H41        -3.3590   -7.1120    0.4730 hc        1 MOL      0.180310
     93 N9         -0.7730   -3.8980    1.6700 n         1 MOL     -0.730714
     94 C29         0.5410   -3.2630    1.6200 c3        1 MOL      0.242316
     95 C30         1.3720   -3.6830    0.4350 c         1 MOL      0.465934
     96 O16         1.6110   -4.8590    0.2780 o         1 MOL     -0.560853
     97 C31         1.1690   -3.3580    3.0350 c3        1 MOL      0.052982
     98 C32         0.2670   -2.5160    4.0360 c3        1 MOL      0.003583
     99 C33         2.6510   -3.0440    3.2130 c3        1 MOL     -0.139372
    100 C34         0.6770   -2.7130    5.5900 c3        1 MOL     -0.232692
    101 H42        -0.8280   -4.8960    1.8450 hn        1 MOL      0.318237
    102 H43         0.3940   -2.1840    1.5200 h1        1 MOL      0.097131
    103 H44         1.0890   -4.4050    3.3090 hc        1 MOL      0.007280
    104 H45        -0.8010   -2.6990    3.9610 hc        1 MOL      0.029117
    105 H46         0.2970   -1.4550    3.7740 hc        1 MOL      0.029117
    106 H47         2.9680   -3.4370    4.1800 hc        1 MOL      0.026449
    107 H48         3.2570   -3.6010    2.5010 hc        1 MOL      0.026449
    108 H49         2.7600   -1.9580    3.2020 hc        1 MOL      0.026449
    109 H50         1.6910   -2.3280    5.6180 hc        1 MOL      0.056222
    110 H51         0.0300   -2.0820    6.2000 hc        1 MOL      0.056222
    111 H52         0.6340   -3.7240    6.0040 hc        1 MOL      0.056222
    112 N10         1.9530   -2.7610   -0.3720 n         1 MOL     -0.084767
    113 C35         3.1060   -3.0840   -1.1720 c3        1 MOL      0.009911
    114 C36         4.4500   -3.1590   -0.4180 c         1 MOL      0.283070
    115 O17         4.6350   -2.8310    0.7480 o         1 MOL     -0.276107
    116 C37         3.2960   -2.0580   -2.3110 c3        1 MOL      0.118133
    117 C38         2.1170   -1.8380   -3.2080 c3        1 MOL     -0.426355
    118 O18         3.4680   -0.8550   -1.6410 oh        1 MOL     -0.280679
    119 H53         1.7430   -1.7880   -0.2640 hn        1 MOL      0.083959
    120 H54         2.8740   -4.0700   -1.5740 h1        1 MOL      0.062550
    121 H55         4.1220   -2.3150   -2.9860 h1        1 MOL      0.045303
    122 H56         3.3620   -0.1550   -2.2970 ho        1 MOL      0.331088
    123 H57         2.3890   -1.1800   -4.0280 hc        1 MOL      0.114024
    124 H58         1.8250   -2.8570   -3.4670 hc        1 MOL      0.114024
    125 H59         1.2370   -1.4870   -2.6610 hc        1 MOL      0.114024
    126 N11         5.4320   -3.5580   -1.2210 n         1 MOL     -0.290192
    127 C39         6.8920   -3.3400   -1.0270 c3        1 MOL     -0.213209
    128 C40         7.0680   -1.9520   -0.5370 c         1 MOL      0.276807
    129 O19         7.6710   -1.7410    0.5150 o         1 MOL     -0.455869
    130 C41         7.6240   -3.6220   -2.3240 c3        1 MOL      0.505659
    131 C42         7.5060   -5.0850   -2.6890 c3        1 MOL     -0.401411
    132 O20         7.2320   -2.7860   -3.3580 oh        1 MOL     -0.635482
    133 H60         5.1660   -4.0400   -2.0680 hn        1 MOL      0.266306
    134 H61         7.2830   -4.0930   -0.3480 h1        1 MOL      0.151820
    135 H62         8.6910   -3.4370   -2.2390 h1        1 MOL     -0.014792
    136 H63         7.9640   -2.2040   -3.5870 ho        1 MOL      0.387463
    137 H64         8.0610   -5.6190   -1.9130 hc        1 MOL      0.109789
    138 H65         6.4420   -5.3010   -2.7670 hc        1 MOL      0.109789
    139 H66         7.9940   -5.1490   -3.6570 hc        1 MOL      0.109789
    140 N12         6.5800   -0.9180   -1.2220 n         1 MOL     -0.123188
    141 C43         6.8250    0.5540   -0.9360 c3        1 MOL     -0.180439
    142 C44         6.1090    1.0580    0.2870 c         1 MOL      0.310281
    143 O21         6.6930    1.8430    1.0780 o         1 MOL     -0.533324
    144 C45         6.4100    1.2890   -2.2200 c3        1 MOL     -0.121494
    145 C46         6.9590    2.7410   -2.1830 c3        1 MOL      0.049774
    146 C47         6.7850    3.3050   -3.6510 c3        1 MOL     -0.014801
    147 C48         7.4660    4.6900   -3.8210 c3        1 MOL     -0.078709
    148 N13         8.9270    4.7470   -3.6460 n4        1 MOL     -0.286359
    149 H67         6.1350   -1.0980   -2.1190 hn        1 MOL      0.131014
    150 H68         7.9120    0.5650   -0.8050 h1        1 MOL      0.153290
    151 H69         5.3320    1.2140   -2.2870 hc        1 MOL      0.056753
    152 H70         6.7680    0.6860   -3.0530 hc        1 MOL      0.056753
    153 H71         8.0360    2.6750   -2.0260 hc        1 MOL      0.019056
    154 H72         6.3760    3.3140   -1.4620 hc        1 MOL      0.019056
    155 H73         5.7290    3.3490   -3.9030 hc        1 MOL      0.051598
    156 H74         7.3290    2.6890   -4.3680 hc        1 MOL      0.051598
    157 H75         7.0620    5.3640   -3.0590 hx        1 MOL      0.113328
    158 H76         7.1290    5.0890   -4.7820 hx        1 MOL      0.113328
    159 H77         9.1260    4.7610   -2.6510 hn        1 MOL      0.286954
    160 H78         9.2570    3.8440   -3.9700 hn        1 MOL      0.286954
    161 H79         9.5070    5.4160   -4.1150 hn        1 MOL      0.286954
    162 N14         4.9760    0.4500    0.6700 n         1 MOL      0.108620
    163 C49         4.2000    0.8380    1.9200 c3        1 MOL     -0.425114
    164 C50         4.7350   -0.0080    3.0850 c         1 MOL      0.620662
    165 O22         4.6950    0.3940    4.2010 o         1 MOL     -0.576810
    166 C51         2.7200    0.5340    1.6790 c3        1 MOL      0.571837
    167 C52         2.0780    1.4470    0.6930 c3        1 MOL     -0.518801
    168 C53         0.6620    0.9580    0.1990 c         1 MOL      0.732022
    169 O23         0.4720   -0.2570    0.0220 o         1 MOL     -0.701301
    170 O24        -0.2770    1.7750   -0.0620 o         1 MOL     -0.701301
    171 H80         4.4570   -0.0150   -0.0550 hn        1 MOL      0.011034
    172 H81         4.3010    1.9150    2.0220 h1        1 MOL      0.139526
    173 H82         2.2390    0.5860    2.6500 hc        1 MOL     -0.087576
    174 H83         2.6690   -0.5190    1.4230 hc        1 MOL     -0.087576
    175 H84         2.6750    1.5560   -0.2150 hc        1 MOL      0.103455
    176 H85         1.9980    2.3590    1.2800 hc        1 MOL      0.103455
    177 N15         5.4440   -1.1470    2.8720 n         1 MOL     -0.108805
    178 C54         6.1270   -1.8730    3.9070 c3        1 MOL     -0.254583
    179 H86         7.1460   -1.4990    4.0000 h1        1 MOL      0.091594
    180 H87         5.6030   -1.7370    4.8540 h1        1 MOL      0.091594
    181 H88         6.1500   -2.9320    3.6530 h1        1 MOL      0.091594
    182 H89         5.4780   -1.4580    1.9120 hn        1 MOL      0.134581
    183 Ca1        -1.8530   -0.2080   -1.1590 Ca        1 MOL      1.734151
    184 O25        -0.8620   -2.5600   -1.9880 oh        1 MOL     -0.858718
    185 H90        -1.4870   -3.2880   -1.9130 ho        1 MOL      0.395681
    186 H91        -0.3520   -2.7720   -2.7600 ho        1 MOL      0.395681
    187 O26        -0.2840    0.4630   -3.4040 oh        1 MOL     -0.858718
    188 H92        -0.8930    1.1430   -3.7130 ho        1 MOL      0.395681
    189 H93         0.1640    0.1770   -4.2090 ho        1 MOL      0.395681
@<TRIPOS>BOND
     1    1    2 1   
     2    1    4 1   
     3    1    5 1   
     4    1    6 1   
     5    2    3 2   
     6    2    7 1   
     7    7    8 1   
     8    7   15 1   
     9    8    9 1   
    10    8   11 1   
    11    8   16 1   
    12    9   10 2   
    13    9   19 1   
    14   11   12 1   
    15   11   17 1   
    16   11   18 1   
    17   12   13 1   
    18   12   14 1   
    19   19   20 1   
    20   19   28 1   
    21   20   21 1   
    22   20   23 1   
    23   20   29 1   
    24   21   22 2   
    25   21   41 1   
    26   23   24 1   
    27   23   30 1   
    28   23   31 1   
    29   24   25 1   
    30   24   32 1   
    31   24   33 1   
    32   25   26 1   
    33   25   34 1   
    34   25   35 1   
    35   26   27 1   
    36   26   36 1   
    37   26   37 1   
    38   27   38 1   
    39   27   39 1   
    40   27   40 1   
    41   41   42 1   
    42   41   49 1   
    43   42   43 1   
    44   42   45 1   
    45   42   50 1   
    46   43   44 2   
    47   43   53 1   
    48   45   46 1   
    49   45   51 1   
    50   45   52 1   
    51   46   47 1   
    52   46   48 1   
    53   53   54 1   
    54   53   57 1   
    55   54   55 1   
    56   54   58 1   
    57   54   59 1   
    58   55   56 2   
    59   55   60 1   
    60   60   61 1   
    61   60   68 1   
    62   61   62 1   
    63   61   64 1   
    64   61   69 1   
    65   62   63 2   
    66   62   72 1   
    67   64   65 1   
    68   64   70 1   
    69   64   71 1   
    70   65   66 1   
    71   65   67 1   
    72   72   73 1   
    73   72   76 1   
    74   73   74 1   
    75   73   77 1   
    76   73   78 1   
    77   74   75 2   
    78   74   79 1   
    79   79   80 1   
    80   79   86 1   
    81   80   81 1   
    82   80   83 1   
    83   80   87 1   
    84   81   82 2   
    85   81   93 1   
    86   83   84 1   
    87   83   85 1   
    88   83   88 1   
    89   84   90 1   
    90   84   91 1   
    91   84   92 1   
    92   85   89 1   
    93   93   94 1   
    94   93  101 1   
    95   94   95 1   
    96   94   97 1   
    97   94  102 1   
    98   95   96 2   
    99   95  112 1   
   100   97   98 1   
   101   97   99 1   
   102   97  103 1   
   103   98  100 1   
   104   98  104 1   
   105   98  105 1   
   106   99  106 1   
   107   99  107 1   
   108   99  108 1   
   109  100  109 1   
   110  100  110 1   
   111  100  111 1   
   112  112  113 1   
   113  112  119 1   
   114  113  114 1   
   115  113  116 1   
   116  113  120 1   
   117  114  115 2   
   118  114  126 1   
   119  116  117 1   
   120  116  118 1   
   121  116  121 1   
   122  117  123 1   
   123  117  124 1   
   124  117  125 1   
   125  118  122 1   
   126  126  127 1   
   127  126  133 1   
   128  127  128 1   
   129  127  130 1   
   130  127  134 1   
   131  128  129 2   
   132  128  140 1   
   133  130  131 1   
   134  130  132 1   
   135  130  135 1   
   136  131  137 1   
   137  131  138 1   
   138  131  139 1   
   139  132  136 1   
   140  140  141 1   
   141  140  149 1   
   142  141  142 1   
   143  141  144 1   
   144  141  150 1   
   145  142  143 2   
   146  142  162 1   
   147  144  145 1   
   148  144  151 1   
   149  144  152 1   
   150  145  146 1   
   151  145  153 1   
   152  145  154 1   
   153  146  147 1   
   154  146  155 1   
   155  146  156 1   
   156  147  148 1   
   157  147  157 1   
   158  147  158 1   
   159  148  159 1   
   160  148  160 1   
   161  148  161 1   
   162  162  163 1   
   163  162  171 1   
   164  163  164 1   
   165  163  166 1   
   166  163  172 1   
   167  164  165 2   
   168  164  177 1   
   169  166  167 1   
   170  166  173 1   
   171  166  174 1   
   172  167  168 1   
   173  167  175 1   
   174  167  176 1   
   175  168  169 1   
   176  168  170 1   
   177  177  178 1   
   178  177  182 1   
   179  178  179 1   
   180  178  180 1   
   181  178  181 1   
   182  184  185 1   
   183  184  186 1   
   184  187  188 1   
   185  187  189 1   
@<TRIPOS>SUBSTRUCTURE
     1 MOL         1 TEMP              0 ****  ****    0 ROOT
