@<TRIPOS>MOLECULE
MOL
  176   174     1     0     0
SMALL
resp


@<TRIPOS>ATOM
      1 C1          1.4060   -3.6520    6.5910 c3        1 MOL     -0.266100
      2 C2          0.9650   -3.1930    5.1540 c         1 MOL      0.709093
      3 O1         -0.1020   -3.5940    4.6920 o         1 MOL     -0.545809
      4 H1          2.3070   -4.2620    6.5160 hc        1 MOL      0.071033
      5 H2          1.6110   -2.7760    7.2060 hc        1 MOL      0.071033
      6 H3          0.6080   -4.2390    7.0460 hc        1 MOL      0.071033
      7 N1          1.7990   -2.3570    4.4160 n         1 MOL     -0.605286
      8 C3          1.5880   -2.2130    2.9410 c3        1 MOL     -0.223795
      9 C4          1.5470   -3.5430    2.2060 c         1 MOL      0.843539
     10 O2          2.3950   -4.3800    2.4490 o         1 MOL     -0.561902
     11 C5          2.6800   -1.2330    2.4080 c3        1 MOL      0.095898
     12 C6          2.6810   -1.0320    0.9250 c         1 MOL     -0.011729
     13 O3          2.4550   -1.9240    0.1010 o         1 MOL     -0.210464
     14 O4          2.9100    0.1050    0.4720 o         1 MOL     -0.210464
     15 H4          2.7230   -2.1180    4.7700 hn        1 MOL      0.338598
     16 H5          0.7200   -1.6450    2.6150 h1        1 MOL      0.113505
     17 H6          3.5850   -1.7990    2.6550 hc        1 MOL      0.028019
     18 H7          2.8040   -0.3360    3.0110 hc        1 MOL      0.028019
     19 N2          0.5140   -3.7550    1.3850 n         1 MOL     -0.497370
     20 C7          0.1700   -5.0140    0.6800 c3        1 MOL     -0.057955
     21 C8          1.1610   -5.5100   -0.2880 c         1 MOL      0.528456
     22 O5          1.3300   -6.7140   -0.4220 o         1 MOL     -0.598987
     23 C9         -1.1700   -4.8480   -0.0060 c3        1 MOL     -0.022651
     24 C10        -1.8980   -6.0900   -0.3570 c3        1 MOL      0.245515
     25 C11        -3.2230   -5.7360   -1.0940 c3        1 MOL     -0.006901
     26 C12        -4.1020   -6.8770   -1.6310 c3        1 MOL     -0.094573
     27 N3         -3.4460   -7.4120   -2.8120 n4        1 MOL     -0.477938
     28 H8          0.1260   -2.8980    1.0410 hn        1 MOL      0.260118
     29 H9          0.0950   -5.7870    1.4390 h1        1 MOL      0.106614
     30 H10        -1.0960   -4.2380   -0.9100 hc        1 MOL      0.027226
     31 H11        -1.7390   -4.2400    0.6990 hc        1 MOL      0.027226
     32 H12        -2.0980   -6.7400    0.4950 hc        1 MOL     -0.064940
     33 H13        -1.2380   -6.6360   -1.0280 hc        1 MOL     -0.064940
     34 H14        -2.9610   -5.0730   -1.9220 hc        1 MOL      0.018514
     35 H15        -3.7630   -5.1790   -0.3260 hc        1 MOL      0.018514
     36 H16        -5.0710   -6.4020   -1.8130 hx        1 MOL      0.139076
     37 H17        -4.2630   -7.5880   -0.8320 hx        1 MOL      0.139076
     38 H18        -2.5080   -7.6530   -2.5120 hn        1 MOL      0.364982
     39 H19        -3.9330   -8.2060   -3.2030 hn        1 MOL      0.364982
     40 H20        -3.4680   -6.7300   -3.5610 hn        1 MOL      0.364982
     41 N4          1.7830   -4.5830   -0.9220 n         1 MOL     -0.254112
     42 C13         2.8340   -4.8690   -1.9480 c3        1 MOL      0.110435
     43 C14         4.2250   -4.7150   -1.3260 c         1 MOL      0.362807
     44 O6          5.2860   -4.9410   -1.9490 o         1 MOL     -0.541572
     45 C15         2.6380   -4.0740   -3.1750 c3        1 MOL     -0.277336
     46 C16         2.3150   -2.5820   -3.0360 c         1 MOL      0.812631
     47 O7          1.2260   -2.0770   -3.3320 o         1 MOL     -0.750184
     48 O8          3.1990   -1.8060   -2.5930 o         1 MOL     -0.750184
     49 H21         1.6070   -3.6660   -0.5360 hn        1 MOL      0.081117
     50 H22         2.8460   -5.9020   -2.3210 h1        1 MOL      0.097819
     51 H23         1.7510   -4.5010   -3.6420 hc        1 MOL      0.055786
     52 H24         3.4740   -4.2560   -3.8470 hc        1 MOL      0.055786
     53 N5          4.2990   -4.1880   -0.1020 n         1 MOL     -0.084820
     54 C17         5.5190   -3.6400    0.4990 c3        1 MOL     -0.222860
     55 C18         6.1930   -2.2720    0.0770 c         1 MOL      0.542935
     56 O9          7.1480   -1.8710    0.7640 o         1 MOL     -0.582333
     57 H25         3.3880   -3.9650    0.2740 hn        1 MOL      0.057510
     58 H26         6.2860   -4.4080    0.4550 h1        1 MOL      0.109756
     59 H27         5.1970   -3.4310    1.5190 h1        1 MOL      0.109756
     60 N6          5.7010   -1.5220   -0.9010 n         1 MOL     -0.300448
     61 C19         6.4080   -0.2850   -1.3380 c3        1 MOL      0.178865
     62 C20         6.4910    0.8460   -0.2060 c         1 MOL      0.243857
     63 O10         7.2880    1.7510   -0.3440 o         1 MOL     -0.449378
     64 C21         5.9630    0.2350   -2.6890 c3        1 MOL     -0.435880
     65 C22         4.9330    1.3140   -2.6240 c         1 MOL      0.716895
     66 N7          5.2230    2.4880   -3.0980 n         1 MOL     -0.701606
     67 O11         3.7490    1.1590   -2.2580 o         1 MOL     -0.641414
     68 H28         4.9520   -1.9210   -1.4410 hn        1 MOL      0.239495
     69 H29         7.4510   -0.5830   -1.3760 h1        1 MOL      0.076336
     70 H30         5.5940   -0.6490   -3.2210 hc        1 MOL      0.141775
     71 H31         6.9210    0.5290   -3.0980 hc        1 MOL      0.141775
     72 H32         6.1790    2.6820   -3.3430 hn        1 MOL      0.350355
     73 H33         4.5110    3.2100   -3.2090 hn        1 MOL      0.350355
     74 N8          5.5380    0.8770    0.8200 n         1 MOL      0.022678
     75 C23         5.5560    1.9260    1.8560 c3        1 MOL     -0.180302
     76 C24         4.4810    3.0490    1.7320 c         1 MOL      0.611266
     77 O12         4.6450    4.1500    2.2840 o         1 MOL     -0.551432
     78 H34         4.8580    0.1280    0.8600 hn        1 MOL      0.089089
     79 H35         6.5350    2.3920    1.9630 h1        1 MOL      0.085998
     80 H36         5.3530    1.4100    2.7860 h1        1 MOL      0.085998
     81 N9          3.3460    2.7690    1.0330 n         1 MOL     -0.349382
     82 C25         2.3050    3.7710    0.6670 c3        1 MOL      0.184014
     83 C26         0.9780    2.9960    0.5000 c         1 MOL      0.256872
     84 O13         0.8900    2.0310   -0.2990 o         1 MOL     -0.570177
     85 C27         2.5830    4.3790   -0.7610 c3        1 MOL      0.248037
     86 C28         3.7370    5.4040   -0.7240 ca        1 MOL     -0.157606
     87 C29         5.1110    5.0250   -0.8140 ca        1 MOL     -0.144727
     88 C30         3.3750    6.7210   -0.4010 ca        1 MOL     -0.144727
     89 C31         6.0820    6.0330   -0.5760 ca        1 MOL     -0.140296
     90 C32         4.4020    7.6950   -0.1890 ca        1 MOL     -0.140296
     91 C33         5.7710    7.3860   -0.3540 ca        1 MOL      0.221979
     92 O14         6.7850    8.2940   -0.3090 oh        1 MOL     -0.429563
     93 H37         3.2120    1.8400    0.6540 hn        1 MOL      0.005983
     94 H38         2.2110    4.6390    1.3100 h1        1 MOL      0.030338
     95 H39         1.6760    4.8220   -1.1700 hc        1 MOL     -0.044175
     96 H40         2.8710    3.6190   -1.4820 hc        1 MOL     -0.044175
     97 H41         5.3390    4.0200   -1.1150 ha        1 MOL      0.101020
     98 H42         2.3450    7.0370   -0.3440 ha        1 MOL      0.101020
     99 H43         7.1120    5.7370   -0.6860 ha        1 MOL      0.108183
    100 H44         4.1160    8.7260   -0.0500 ha        1 MOL      0.108183
    101 H45         6.4560    9.1930   -0.3290 ho        1 MOL      0.336519
    102 N10        -0.1350    3.3850    1.0970 n         1 MOL     -0.318651
    103 C34        -1.3760    2.6270    1.2270 c3        1 MOL     -0.026574
    104 C35        -2.5820    3.4910    0.9950 c         1 MOL      0.425650
    105 O15        -2.9610    4.3370    1.8000 o         1 MOL     -0.504900
    106 C36        -1.3640    1.9510    2.6200 c3        1 MOL     -0.008492
    107 C37        -0.1120    1.2200    2.9000 c3        1 MOL      0.251504
    108 C38        -2.6250    1.0710    2.8290 c3        1 MOL     -0.149852
    109 C39        -0.1210    0.6200    4.2440 c3        1 MOL     -0.071017
    110 H46        -0.0540    4.1980    1.6890 hn        1 MOL      0.278425
    111 H47        -1.4530    1.8530    0.4520 h1        1 MOL      0.176940
    112 H48        -1.3920    2.7860    3.3170 hc        1 MOL      0.015243
    113 H49         0.7620    1.8790    2.9310 hc        1 MOL     -0.051683
    114 H50         0.1150    0.4860    2.1280 hc        1 MOL     -0.051683
    115 H51        -2.7570    0.8350    3.8750 hc        1 MOL      0.052119
    116 H52        -3.5690    1.5650    2.6120 hc        1 MOL      0.052119
    117 H53        -2.6000    0.1390    2.2610 hc        1 MOL      0.052119
    118 H54        -0.8980   -0.1140    4.4740 hc        1 MOL      0.001454
    119 H55         0.8380    0.1920    4.5380 hc        1 MOL      0.001454
    120 H56        -0.2830    1.4420    4.9430 hc        1 MOL      0.001454
    121 N11        -3.1930    3.3370   -0.1790 n         1 MOL     -0.367900
    122 C40        -4.3820    4.0330   -0.6950 c3        1 MOL      0.097556
    123 C41        -5.5960    3.3770    0.0050 c         1 MOL      0.293738
    124 O16        -5.4720    2.3260    0.6230 o         1 MOL     -0.200593
    125 C42        -4.5240    3.9140   -2.1980 c3        1 MOL     -0.049882
    126 O17        -4.7010    2.5290   -2.3550 oh        1 MOL     -0.422209
    127 H57        -2.7510    2.7250   -0.8510 hn        1 MOL      0.295511
    128 H58        -4.3710    5.0900   -0.4150 h1        1 MOL      0.074068
    129 H59        -3.6210    4.3000   -2.6610 h1        1 MOL      0.067975
    130 H60        -5.3730    4.5250   -2.4920 h1        1 MOL      0.067975
    131 H61        -4.8260    2.4130   -3.2940 ho        1 MOL      0.376454
    132 N12        -6.7750    3.9850   -0.1580 n         1 MOL     -0.410867
    133 C43        -8.1050    3.5990    0.4310 c3        1 MOL      0.258131
    134 C44        -8.5780    2.2310   -0.0190 c         1 MOL      0.482103
    135 O18        -9.2460    1.6010    0.7470 o         1 MOL     -0.517662
    136 C45        -9.0370    4.8320    0.3470 c3        1 MOL     -0.378189
    137 H62        -6.8260    4.8180   -0.7320 hn        1 MOL      0.256838
    138 H63        -8.0910    3.4690    1.5080 h1        1 MOL      0.049149
    139 H64        -9.6440    4.6760   -0.5450 hc        1 MOL      0.113430
    140 H65        -9.6540    4.8960    1.2420 hc        1 MOL      0.113430
    141 H66        -8.4010    5.7220    0.4150 hc        1 MOL      0.113430
    142 N13        -8.3410    1.7520   -1.2760 n         1 MOL     -0.415701
    143 C46        -8.5750    0.3580   -1.7250 c3        1 MOL      0.147685
    144 C47        -7.5650   -0.6950   -1.2350 c         1 MOL      0.374247
    145 O19        -7.8510   -1.8940   -1.1870 o         1 MOL     -0.498225
    146 C48        -8.5700    0.4030   -3.2770 c3        1 MOL     -0.304988
    147 H67        -7.8740    2.4320   -1.8620 hn        1 MOL      0.238440
    148 H68        -9.5580   -0.0050   -1.4060 h1        1 MOL      0.093883
    149 H69        -8.7330   -0.6120   -3.6400 hc        1 MOL      0.085408
    150 H70        -9.3550    1.0850   -3.6050 hc        1 MOL      0.085408
    151 H71        -7.6400    0.8380   -3.6630 hc        1 MOL      0.085408
    152 N14        -6.2960   -0.2330   -0.9430 n         1 MOL     -0.111831
    153 C49        -5.2670   -1.1270   -0.4240 c3        1 MOL     -0.025753
    154 C50        -5.3820   -1.2400    1.1020 c         1 MOL      0.458721
    155 O20        -5.3210   -2.3560    1.6280 o         1 MOL     -0.549146
    156 C51        -3.9430   -0.5860   -0.8540 c3        1 MOL     -0.019463
    157 C52        -2.7370   -1.4600   -0.4160 c3        1 MOL     -0.114625
    158 C53        -1.3870   -0.9620   -0.8550 c         1 MOL      0.763169
    159 O21        -0.3820   -1.4180   -0.3010 o         1 MOL     -0.823331
    160 O22        -1.2220   -0.0070   -1.6870 o         1 MOL     -0.823331
    161 H72        -5.9890    0.7110   -1.1590 hn        1 MOL      0.043557
    162 H73        -5.3930   -2.1030   -0.8940 h1        1 MOL      0.046810
    163 H74        -3.7600    0.4150   -0.4690 hc        1 MOL      0.005857
    164 H75        -3.9280   -0.5020   -1.9490 hc        1 MOL      0.005857
    165 H76        -2.8910   -2.4700   -0.8020 hc        1 MOL      0.056882
    166 H77        -2.7830   -1.5690    0.6680 hc        1 MOL      0.056882
    167 N15        -5.6790   -0.1020    1.7870 n         1 MOL      0.011997
    168 C54        -6.0880    0.0020    3.1840 c3        1 MOL     -0.235778
    169 H78        -5.3150   -0.4270    3.8220 h1        1 MOL      0.095338
    170 H79        -6.2310    1.0510    3.4440 h1        1 MOL      0.095338
    171 H80        -7.0230   -0.5400    3.3310 h1        1 MOL      0.095338
    172 H81        -5.6140    0.7710    1.2750 hn        1 MOL     -0.090441
    173 Ca1         1.4330   -0.1060   -1.6300 Ca        1 MOL      1.721816
    174 O23         1.2440    1.0350   -3.9610 oh        1 MOL     -0.795858
    175 H82         1.2330    0.9050   -4.9070 ho        1 MOL      0.402414
    176 H83         0.9340    1.9320   -3.8290 ho        1 MOL      0.402414
@<TRIPOS>BOND
     1    1    2 1   
     2    1    4 1   
     3    1    5 1   
     4    1    6 1   
     5    2    3 2   
     6    2    7 1   
     7    7    8 1   
     8    7   15 1   
     9    8    9 1   
    10    8   11 1   
    11    8   16 1   
    12    9   10 2   
    13    9   19 1   
    14   11   12 1   
    15   11   17 1   
    16   11   18 1   
    17   12   13 1   
    18   12   14 1   
    19   19   20 1   
    20   19   28 1   
    21   20   21 1   
    22   20   23 1   
    23   20   29 1   
    24   21   22 2   
    25   21   41 1   
    26   23   24 1   
    27   23   30 1   
    28   23   31 1   
    29   24   25 1   
    30   24   32 1   
    31   24   33 1   
    32   25   26 1   
    33   25   34 1   
    34   25   35 1   
    35   26   27 1   
    36   26   36 1   
    37   26   37 1   
    38   27   38 1   
    39   27   39 1   
    40   27   40 1   
    41   41   42 1   
    42   41   49 1   
    43   42   43 1   
    44   42   45 1   
    45   42   50 1   
    46   43   44 2   
    47   43   53 1   
    48   45   46 1   
    49   45   51 1   
    50   45   52 1   
    51   46   47 1   
    52   46   48 1   
    53   53   54 1   
    54   53   57 1   
    55   54   55 1   
    56   54   58 1   
    57   54   59 1   
    58   55   56 2   
    59   55   60 1   
    60   60   61 1   
    61   60   68 1   
    62   61   62 1   
    63   61   64 1   
    64   61   69 1   
    65   62   63 2   
    66   62   74 1   
    67   64   65 1   
    68   64   70 1   
    69   64   71 1   
    70   65   66 1   
    71   65   67 2   
    72   66   72 1   
    73   66   73 1   
    74   74   75 1   
    75   74   78 1   
    76   75   76 1   
    77   75   79 1   
    78   75   80 1   
    79   76   77 2   
    80   76   81 1   
    81   81   82 1   
    82   81   93 1   
    83   82   83 1   
    84   82   85 1   
    85   82   94 1   
    86   83   84 2   
    87   83  102 1   
    88   85   86 1   
    89   85   95 1   
    90   85   96 1   
    91   86   87 ar  
    92   86   88 ar  
    93   87   89 ar  
    94   87   97 1   
    95   88   90 ar  
    96   88   98 1   
    97   89   91 ar  
    98   89   99 1   
    99   90   91 ar  
   100   90  100 1   
   101   91   92 1   
   102   92  101 1   
   103  102  103 1   
   104  102  110 1   
   105  103  104 1   
   106  103  106 1   
   107  103  111 1   
   108  104  105 2   
   109  104  121 1   
   110  106  107 1   
   111  106  108 1   
   112  106  112 1   
   113  107  109 1   
   114  107  113 1   
   115  107  114 1   
   116  108  115 1   
   117  108  116 1   
   118  108  117 1   
   119  109  118 1   
   120  109  119 1   
   121  109  120 1   
   122  121  122 1   
   123  121  127 1   
   124  122  123 1   
   125  122  125 1   
   126  122  128 1   
   127  123  124 2   
   128  123  132 1   
   129  125  126 1   
   130  125  129 1   
   131  125  130 1   
   132  126  131 1   
   133  132  133 1   
   134  132  137 1   
   135  133  134 1   
   136  133  136 1   
   137  133  138 1   
   138  134  135 2   
   139  134  142 1   
   140  136  139 1   
   141  136  140 1   
   142  136  141 1   
   143  142  143 1   
   144  142  147 1   
   145  143  144 1   
   146  143  146 1   
   147  143  148 1   
   148  144  145 2   
   149  144  152 1   
   150  146  149 1   
   151  146  150 1   
   152  146  151 1   
   153  152  153 1   
   154  152  161 1   
   155  153  154 1   
   156  153  156 1   
   157  153  162 1   
   158  154  155 2   
   159  154  167 1   
   160  156  157 1   
   161  156  163 1   
   162  156  164 1   
   163  157  158 1   
   164  157  165 1   
   165  157  166 1   
   166  158  159 1   
   167  158  160 1   
   168  167  168 1   
   169  167  172 1   
   170  168  169 1   
   171  168  170 1   
   172  168  171 1   
   173  174  175 1   
   174  174  176 1   
@<TRIPOS>SUBSTRUCTURE
     1 MOL         1 TEMP              0 ****  ****    0 ROOT
