@<TRIPOS>MOLECULE
MOL
  182   178     1     0     0
SMALL
resp


@<TRIPOS>ATOM
      1 C1          2.1570    2.7660    6.1860 c3        1 MOL     -0.314996
      2 C2          1.6690    2.3270    4.7640 c         1 MOL      0.730461
      3 O1          2.5510    2.0680    3.9390 o         1 MOL     -0.588580
      4 H1          3.1060    2.2790    6.4100 hc        1 MOL      0.080070
      5 H2          2.2900    3.8480    6.2070 hc        1 MOL      0.080070
      6 H3          1.4150    2.4770    6.9310 hc        1 MOL      0.080070
      7 N1          0.3670    2.1980    4.5500 n         1 MOL     -0.616956
      8 C3         -0.2320    2.1800    3.2660 c3        1 MOL     -0.061915
      9 C4         -0.2840    3.5810    2.6490 c         1 MOL      0.626117
     10 O2         -0.9660    4.4750    3.1430 o         1 MOL     -0.554946
     11 C5         -1.6070    1.6150    3.3450 c3        1 MOL     -0.145529
     12 C6         -2.3780    1.4380    1.9990 c         1 MOL      0.850849
     13 O3         -3.4430    0.7850    1.9720 o         1 MOL     -0.796100
     14 O4         -1.8540    2.0280    1.0230 o         1 MOL     -0.796100
     15 H4         -0.2350    2.4170    5.3360 hn        1 MOL      0.348033
     16 H5          0.4490    1.5890    2.6590 h1        1 MOL      0.066967
     17 H6         -2.2190    2.2650    3.9670 hc        1 MOL      0.049796
     18 H7         -1.5060    0.6160    3.7660 hc        1 MOL      0.049796
     19 N2          0.4110    3.7490    1.4970 n         1 MOL     -0.358217
     20 C7          0.5930    5.0140    0.6510 c3        1 MOL     -0.202656
     21 C8         -0.7620    5.5080    0.0520 c         1 MOL      0.592892
     22 O5         -0.9480    6.7330   -0.1450 o         1 MOL     -0.592879
     23 C9          1.5960    4.8570   -0.4380 c3        1 MOL     -0.056949
     24 C10         1.9810    6.1870   -1.1760 c3        1 MOL     -0.232084
     25 C11         3.2760    6.0580   -1.9980 c3        1 MOL      0.084555
     26 C12         3.4950    7.4290   -2.7170 c3        1 MOL      0.109154
     27 N3          4.6160    7.4030   -3.6630 n4        1 MOL     -0.369508
     28 H8          0.9280    2.9600    1.1370 hn        1 MOL      0.230111
     29 H9          0.9370    5.7800    1.3380 h1        1 MOL      0.149214
     30 H10         1.2620    4.1020   -1.1450 hc        1 MOL      0.121838
     31 H11         2.5040    4.5420    0.0720 hc        1 MOL      0.121838
     32 H12         2.2010    6.9280   -0.4000 hc        1 MOL      0.087091
     33 H13         1.1550    6.5410   -1.7860 hc        1 MOL      0.087091
     34 H14         3.0420    5.3490   -2.7980 hc        1 MOL     -0.007040
     35 H15         4.1220    5.7200   -1.4140 hc        1 MOL     -0.007040
     36 H16         3.6900    8.1270   -1.9020 hx        1 MOL      0.064296
     37 H17         2.5720    7.7690   -3.1710 hx        1 MOL      0.064296
     38 H18         4.3250    6.7460   -4.3770 hn        1 MOL      0.328009
     39 H19         4.7270    8.3120   -4.0800 hn        1 MOL      0.328009
     40 H20         5.4400    6.9760   -3.2700 hn        1 MOL      0.328009
     41 N4         -1.7860    4.6190   -0.1270 n         1 MOL     -0.359997
     42 C13        -3.0770    5.0510   -0.7480 c3        1 MOL     -0.118068
     43 C14        -4.3450    4.4480   -0.1340 c         1 MOL      0.433838
     44 O6         -5.4620    4.5880   -0.6780 o         1 MOL     -0.530913
     45 C15        -3.0440    4.7340   -2.2820 c3        1 MOL     -0.113035
     46 C16        -3.2280    3.2200   -2.7120 c         1 MOL      0.768761
     47 O7         -2.9270    2.2880   -1.9330 o         1 MOL     -0.704587
     48 O8         -3.3900    3.0720   -3.9560 o         1 MOL     -0.704587
     49 H21        -1.5500    3.6490   -0.0300 hn        1 MOL      0.266315
     50 H22        -3.3050    6.1030   -0.6260 h1        1 MOL      0.169910
     51 H23        -2.1450    5.0750   -2.7930 hc        1 MOL      0.040400
     52 H24        -3.7790    5.3800   -2.7710 hc        1 MOL      0.040400
     53 N5         -4.2500    3.7770    1.0160 n         1 MOL     -0.112458
     54 C17        -5.3820    3.2630    1.6640 c3        1 MOL     -0.524585
     55 C18        -6.1020    2.0630    1.0840 c         1 MOL      0.652888
     56 O9         -7.0890    1.5720    1.6330 o         1 MOL     -0.593422
     57 H25        -3.3520    3.6610    1.4730 hn        1 MOL      0.224557
     58 H26        -6.1480    4.0260    1.7230 h1        1 MOL      0.201382
     59 H27        -5.0970    2.9060    2.6520 h1        1 MOL      0.201382
     60 N6         -5.7350    1.5300   -0.1730 n         1 MOL     -0.209848
     61 C19        -6.4500    0.5300   -0.9600 c3        1 MOL     -0.116147
     62 C20        -6.6830   -0.8230   -0.2630 c         1 MOL      0.443447
     63 O10        -7.2490   -1.6890   -0.9250 o         1 MOL     -0.536908
     64 C21        -5.7020    0.3870   -2.3710 c3        1 MOL      0.040921
     65 C22        -4.4490   -0.4550   -2.3850 c         1 MOL      0.603502
     66 N7         -4.1760   -1.2770   -3.3290 n         1 MOL     -0.729663
     67 O11        -3.6340   -0.4400   -1.4690 o         1 MOL     -0.726781
     68 H28        -4.8070    1.7850   -0.4690 hn        1 MOL      0.125801
     69 H29        -7.4580    0.9200   -1.1350 h1        1 MOL      0.113314
     70 H30        -5.6060    1.3370   -2.8850 hc        1 MOL      0.031898
     71 H31        -6.3440   -0.0950   -3.1100 hc        1 MOL      0.031898
     72 H32        -4.7340   -1.4450   -4.1500 hn        1 MOL      0.346111
     73 H33        -3.2380   -1.6620   -3.3420 hn        1 MOL      0.346111
     74 N8         -6.1520   -1.0570    0.9260 n         1 MOL     -0.110204
     75 C23        -6.2070   -2.3680    1.6420 c3        1 MOL     -0.441205
     76 C24        -4.8600   -3.1110    1.7990 c         1 MOL      0.841739
     77 O12        -4.8310   -4.1340    2.4380 o         1 MOL     -0.609618
     78 H34        -5.4730   -0.3690    1.1990 hn        1 MOL      0.267294
     79 H35        -6.8990   -3.1010    1.2330 h1        1 MOL      0.168527
     80 H36        -6.5050   -2.1130    2.6660 h1        1 MOL      0.168527
     81 N9         -3.7510   -2.6290    1.2940 n         1 MOL     -0.774343
     82 C25        -2.6110   -3.4430    0.9390 c3        1 MOL      0.194073
     83 C26        -1.3280   -2.5980    1.0590 c         1 MOL      0.724797
     84 O13        -1.2390   -1.5690    0.3780 o         1 MOL     -0.731909
     85 C27        -2.8720   -4.0500   -0.4350 c3        1 MOL     -0.102172
     86 C28        -4.0560   -4.9600   -0.6730 ca        1 MOL      0.069367
     87 C29        -5.0110   -4.4880   -1.6500 ca        1 MOL     -0.265214
     88 C30        -4.1670   -6.1650   -0.0180 ca        1 MOL     -0.265214
     89 C31        -6.1330   -5.3340   -1.8790 ca        1 MOL     -0.139120
     90 C32        -5.3000   -6.9420   -0.2650 ca        1 MOL     -0.139120
     91 C33        -6.2880   -6.5630   -1.2430 ca        1 MOL      0.246789
     92 O14        -7.2630   -7.3900   -1.6020 oh        1 MOL     -0.442925
     93 H37        -3.8450   -1.7610    0.7860 hn        1 MOL      0.494279
     94 H38        -2.5330   -4.2510    1.6690 h1        1 MOL      0.050773
     95 H39        -1.9310   -4.5510   -0.6660 hc        1 MOL      0.030936
     96 H40        -2.9590   -3.2670   -1.1870 hc        1 MOL      0.030936
     97 H41        -4.9220   -3.5020   -2.0810 ha        1 MOL      0.183322
     98 H42        -3.3940   -6.4210    0.6960 ha        1 MOL      0.183322
     99 H43        -6.6990   -5.0600   -2.7610 ha        1 MOL      0.115113
    100 H44        -5.3820   -7.9400    0.1380 ha        1 MOL      0.115113
    101 H45        -7.0260   -8.2390   -1.2170 ho        1 MOL      0.347807
    102 N10        -0.3100   -2.9660    1.8090 n         1 MOL     -0.612558
    103 C34         1.0510   -2.4860    1.7390 c3        1 MOL      0.022840
    104 C35         1.7490   -3.4120    0.7310 c         1 MOL      0.470256
    105 O15         1.8210   -4.5920    0.9270 o         1 MOL     -0.525824
    106 C36         1.7060   -2.5580    3.1260 c3        1 MOL      0.054538
    107 C37         0.9910   -1.6590    4.1870 c3        1 MOL      0.068393
    108 C38         3.1980   -2.1160    3.2240 c3        1 MOL     -0.318664
    109 C39         1.4300   -1.7470    5.6680 c3        1 MOL     -0.232985
    110 H46        -0.4710   -3.7730    2.3990 hn        1 MOL      0.315399
    111 H47         1.0680   -1.4380    1.4070 h1        1 MOL      0.167303
    112 H48         1.5960   -3.5620    3.5380 hc        1 MOL      0.027794
    113 H49        -0.0840   -1.8480    4.2660 hc        1 MOL      0.026379
    114 H50         1.1630   -0.6210    3.8940 hc        1 MOL      0.026379
    115 H51         3.2960   -1.0540    3.0250 hc        1 MOL      0.082397
    116 H52         3.6760   -2.4360    4.1590 hc        1 MOL      0.082397
    117 H53         3.7980   -2.5910    2.4480 hc        1 MOL      0.082397
    118 H54         2.4850   -1.5290    5.7910 hc        1 MOL      0.056740
    119 H55         0.7420   -1.3200    6.4050 hc        1 MOL      0.056740
    120 H56         1.3910   -2.8080    5.9210 hc        1 MOL      0.056740
    121 N11         2.2350   -2.8560   -0.3980 n         1 MOL     -0.153463
    122 C40         3.1080   -3.6050   -1.3220 c3        1 MOL     -0.084710
    123 C41         4.5420   -3.6660   -0.7370 c         1 MOL      0.410126
    124 O16         4.8270   -2.9280    0.2350 o         1 MOL     -0.338178
    125 C42         2.9780   -2.9360   -2.6510 c3        1 MOL     -0.077796
    126 O17         3.3590   -1.5990   -2.6800 oh        1 MOL     -0.456214
    127 H57         2.0330   -1.8880   -0.5910 hn        1 MOL      0.136966
    128 H58         2.8130   -4.6520   -1.3460 h1        1 MOL      0.087783
    129 H59         1.9520   -3.0640   -2.9940 h1        1 MOL      0.081563
    130 H60         3.7020   -3.3970   -3.3280 h1        1 MOL      0.081563
    131 H61         2.6010   -1.1830   -2.2660 ho        1 MOL      0.340086
    132 N12         5.4390   -4.4790   -1.4060 n         1 MOL     -0.357064
    133 C43         6.8780   -4.5160   -0.9730 c3        1 MOL      0.000730
    134 C44         7.5210   -3.1340   -1.3870 c         1 MOL      0.484204
    135 O18         8.4550   -2.7390   -0.7510 o         1 MOL     -0.512760
    136 C45         7.7100   -5.6530   -1.7330 c3        1 MOL     -0.355707
    137 H62         5.1620   -4.9650   -2.2470 hn        1 MOL      0.268659
    138 H63         6.8450   -4.6520    0.1030 h1        1 MOL      0.129303
    139 H64         7.6790   -5.5020   -2.8120 hc        1 MOL      0.119330
    140 H65         8.7820   -5.4960   -1.5890 hc        1 MOL      0.119330
    141 H66         7.4690   -6.6590   -1.3910 hc        1 MOL      0.119330
    142 N13         6.9850   -2.3750   -2.3180 n         1 MOL     -0.342459
    143 C46         7.3920   -0.9700   -2.5750 c3        1 MOL      0.011617
    144 C47         7.0100   -0.0040   -1.4740 c         1 MOL      0.435926
    145 O19         7.7420    0.9420   -1.3240 o         1 MOL     -0.525747
    146 C48         6.6090   -0.5360   -3.7980 c3        1 MOL     -0.173609
    147 H67         6.2400   -2.7340   -2.8930 hn        1 MOL      0.262496
    148 H68         8.4640   -0.9490   -2.7630 h1        1 MOL      0.112558
    149 H69         6.9600    0.4260   -4.1770 hc        1 MOL      0.049332
    150 H70         6.7940   -1.2530   -4.6030 hc        1 MOL      0.049332
    151 H71         5.5360   -0.4350   -3.6570 hc        1 MOL      0.049332
    152 N14         5.9520   -0.2720   -0.7280 n         1 MOL      0.005633
    153 C49         5.5490    0.5320    0.4370 c3        1 MOL     -0.093879
    154 C50         6.2570    0.2880    1.7460 c         1 MOL      0.451976
    155 O20         6.7880    1.2620    2.3700 o         1 MOL     -0.544461
    156 C51         3.9950    0.4010    0.7200 c3        1 MOL      0.074371
    157 C52         3.2620    1.1490   -0.3380 c3        1 MOL      0.475099
    158 C53         1.7880    0.6900   -0.5270 c         1 MOL      0.290268
    159 O21         1.4420   -0.3250   -1.2390 o         1 MOL     -0.617357
    160 O22         0.9330    1.4020    0.1370 o         1 MOL     -0.617357
    161 H72         5.3600   -1.0840   -0.8740 hn        1 MOL     -0.058753
    162 H73         5.7670    1.5600    0.1360 h1        1 MOL      0.043393
    163 H74         3.7910    0.8920    1.6700 hc        1 MOL      0.007838
    164 H75         3.7220   -0.6480    0.7310 hc        1 MOL      0.007838
    165 H76         3.7660    1.0800   -1.3080 hc        1 MOL     -0.144116
    166 H77         3.2040    2.2270   -0.2100 hc        1 MOL     -0.144116
    167 N15         6.3930   -0.9800    2.1080 n         1 MOL     -0.139629
    168 C54         7.1860   -1.5680    3.2270 c3        1 MOL     -0.170678
    169 H78         8.0190   -2.1410    2.8200 h1        1 MOL      0.091824
    170 H79         7.5710   -0.7690    3.8600 h1        1 MOL      0.091824
    171 H80         6.5490   -2.2250    3.8180 h1        1 MOL      0.091824
    172 H81         5.9540   -1.6230    1.4620 hn        1 MOL      0.118989
    173 Ca1        -1.1760    0.5720   -1.1750 Ca        1 MOL      1.836442
    174 O23         0.0780    2.5340   -2.6080 oh        1 MOL     -0.837343
    175 H82        -0.4740    2.5660   -3.3920 ho        1 MOL      0.400982
    176 H83         0.9480    2.7980   -2.9030 ho        1 MOL      0.400982
    177 O24        -0.8520   -1.5160   -2.7570 oh        1 MOL     -0.837343
    178 H84        -0.9510   -2.4580   -2.6950 ho        1 MOL      0.400982
    179 H85        -0.2770   -1.3840   -3.5070 ho        1 MOL      0.400982
    180 O25        -1.8290    1.0440   -4.1510 oh        1 MOL     -0.837343
    181 H86        -2.6230    1.5510   -3.9570 ho        1 MOL      0.400982
    182 H87        -2.1060    0.3980   -4.8020 ho        1 MOL      0.400982
@<TRIPOS>BOND
     1    1    2 1   
     2    1    4 1   
     3    1    5 1   
     4    1    6 1   
     5    2    3 2   
     6    2    7 1   
     7    7    8 1   
     8    7   15 1   
     9    8    9 1   
    10    8   11 1   
    11    8   16 1   
    12    9   10 2   
    13    9   19 1   
    14   11   12 1   
    15   11   17 1   
    16   11   18 1   
    17   12   13 1   
    18   12   14 1   
    19   19   20 1   
    20   19   28 1   
    21   20   21 1   
    22   20   23 1   
    23   20   29 1   
    24   21   22 2   
    25   21   41 1   
    26   23   24 1   
    27   23   30 1   
    28   23   31 1   
    29   24   25 1   
    30   24   32 1   
    31   24   33 1   
    32   25   26 1   
    33   25   34 1   
    34   25   35 1   
    35   26   27 1   
    36   26   36 1   
    37   26   37 1   
    38   27   38 1   
    39   27   39 1   
    40   27   40 1   
    41   41   42 1   
    42   41   49 1   
    43   42   43 1   
    44   42   45 1   
    45   42   50 1   
    46   43   44 2   
    47   43   53 1   
    48   45   46 1   
    49   45   51 1   
    50   45   52 1   
    51   46   47 1   
    52   46   48 1   
    53   53   54 1   
    54   53   57 1   
    55   54   55 1   
    56   54   58 1   
    57   54   59 1   
    58   55   56 2   
    59   55   60 1   
    60   60   61 1   
    61   60   68 1   
    62   61   62 1   
    63   61   64 1   
    64   61   69 1   
    65   62   63 2   
    66   62   74 1   
    67   64   65 1   
    68   64   70 1   
    69   64   71 1   
    70   65   66 1   
    71   65   67 2   
    72   66   72 1   
    73   66   73 1   
    74   74   75 1   
    75   74   78 1   
    76   75   76 1   
    77   75   79 1   
    78   75   80 1   
    79   76   77 2   
    80   76   81 1   
    81   81   82 1   
    82   81   93 1   
    83   82   83 1   
    84   82   85 1   
    85   82   94 1   
    86   83   84 2   
    87   83  102 1   
    88   85   86 1   
    89   85   95 1   
    90   85   96 1   
    91   86   87 ar  
    92   86   88 ar  
    93   87   89 ar  
    94   87   97 1   
    95   88   90 ar  
    96   88   98 1   
    97   89   91 ar  
    98   89   99 1   
    99   90   91 ar  
   100   90  100 1   
   101   91   92 1   
   102   92  101 1   
   103  102  103 1   
   104  102  110 1   
   105  103  104 1   
   106  103  106 1   
   107  103  111 1   
   108  104  105 2   
   109  104  121 1   
   110  106  107 1   
   111  106  108 1   
   112  106  112 1   
   113  107  109 1   
   114  107  113 1   
   115  107  114 1   
   116  108  115 1   
   117  108  116 1   
   118  108  117 1   
   119  109  118 1   
   120  109  119 1   
   121  109  120 1   
   122  121  122 1   
   123  121  127 1   
   124  122  123 1   
   125  122  125 1   
   126  122  128 1   
   127  123  124 2   
   128  123  132 1   
   129  125  126 1   
   130  125  129 1   
   131  125  130 1   
   132  126  131 1   
   133  132  133 1   
   134  132  137 1   
   135  133  134 1   
   136  133  136 1   
   137  133  138 1   
   138  134  135 2   
   139  134  142 1   
   140  136  139 1   
   141  136  140 1   
   142  136  141 1   
   143  142  143 1   
   144  142  147 1   
   145  143  144 1   
   146  143  146 1   
   147  143  148 1   
   148  144  145 2   
   149  144  152 1   
   150  146  149 1   
   151  146  150 1   
   152  146  151 1   
   153  152  153 1   
   154  152  161 1   
   155  153  154 1   
   156  153  156 1   
   157  153  162 1   
   158  154  155 2   
   159  154  167 1   
   160  156  157 1   
   161  156  163 1   
   162  156  164 1   
   163  157  158 1   
   164  157  165 1   
   165  157  166 1   
   166  158  159 1   
   167  158  160 1   
   168  167  168 1   
   169  167  172 1   
   170  168  169 1   
   171  168  170 1   
   172  168  171 1   
   173  174  175 1   
   174  174  176 1   
   175  177  178 1   
   176  177  179 1   
   177  180  181 1   
   178  180  182 1   
@<TRIPOS>SUBSTRUCTURE
     1 MOL         1 TEMP              0 ****  ****    0 ROOT
