@<TRIPOS>MOLECULE
MOL
  183   181     1     0     0
SMALL
resp


@<TRIPOS>ATOM
      1 C1         -0.9510    0.8870    6.3490 c3        1 MOL     -0.333047
      2 C2         -1.1850    1.0960    4.8350 c         1 MOL      0.735235
      3 O1         -0.5030    1.8920    4.1770 o         1 MOL     -0.599568
      4 H1         -0.5540    1.8030    6.7840 hc        1 MOL      0.075405
      5 H2         -1.8950    0.6330    6.8320 hc        1 MOL      0.075405
      6 H3         -0.2370    0.0760    6.4980 hc        1 MOL      0.075405
      7 N1         -2.2970    0.5420    4.3000 n         1 MOL     -0.541518
      8 C3         -2.7910    0.8560    2.9890 c3        1 MOL      0.193571
      9 C4         -3.1830    2.3660    2.7820 c         1 MOL      0.589973
     10 O2         -3.9810    2.8630    3.5940 o         1 MOL     -0.590518
     11 C5         -3.9360   -0.1300    2.5980 c3        1 MOL     -0.156342
     12 C6         -4.4160    0.0670    1.2390 c         1 MOL      0.584436
     13 O3         -5.6010   -0.2830    0.9980 o         1 MOL     -0.535978
     14 O4         -3.7540    0.6480    0.3430 o         1 MOL     -0.535978
     15 H4         -2.9080    0.1170    4.9780 hn        1 MOL      0.273008
     16 H5         -1.8830    0.7180    2.3910 h1        1 MOL     -0.039611
     17 H6         -4.7740    0.2040    3.2090 hc        1 MOL      0.025579
     18 H7         -3.7560   -1.1860    2.7770 hc        1 MOL      0.025579
     19 N2         -2.5940    3.0090    1.7360 n         1 MOL     -0.465363
     20 C7         -2.8450    4.4680    1.3900 c3        1 MOL     -0.080020
     21 C8         -3.9410    4.4650    0.3540 c         1 MOL      0.474743
     22 O5         -4.5170    5.5890    0.1180 o         1 MOL     -0.562667
     23 C9         -1.4760    5.0880    0.9250 c3        1 MOL      0.268651
     24 C10        -0.4610    5.0460    2.0230 c3        1 MOL     -0.073287
     25 C11        -1.7490    6.4540    0.4150 c3        1 MOL     -0.102910
     26 C12         0.9000    5.7080    1.6640 c3        1 MOL     -0.269449
     27 H8         -2.0920    2.5600    0.9850 hn        1 MOL      0.210534
     28 H9         -3.2810    4.9870    2.2400 h1        1 MOL      0.093188
     29 H10        -1.0420    4.4960    0.1100 hc        1 MOL      0.032818
     30 H11        -0.2070    3.9960    2.1780 hc        1 MOL      0.047389
     31 H12        -0.8260    5.4010    2.9810 hc        1 MOL      0.047389
     32 H13        -0.7770    6.9480    0.3030 hc        1 MOL      0.001145
     33 H14        -2.2950    6.3710   -0.5250 hc        1 MOL      0.001145
     34 H15        -2.3260    7.0420    1.1340 hc        1 MOL      0.001145
     35 H16         1.6190    5.2930    2.3660 hc        1 MOL      0.064913
     36 H17         1.1740    5.4820    0.6330 hc        1 MOL      0.064913
     37 H18         0.9230    6.7840    1.8420 hc        1 MOL      0.064913
     38 N3         -4.2990    3.3530   -0.3860 n         1 MOL     -0.301699
     39 C13        -5.2540    3.4170   -1.4360 c3        1 MOL      0.099851
     40 C14        -6.6990    3.2580   -1.0070 c         1 MOL      0.361717
     41 O6         -7.5760    3.9370   -1.5610 o         1 MOL     -0.522865
     42 C15        -5.0100    2.4010   -2.5820 c3        1 MOL     -0.184536
     43 C16        -3.5260    2.5310   -3.0780 c         1 MOL      0.649583
     44 O7         -2.7650    1.6920   -2.6100 o         1 MOL     -0.684979
     45 O8         -3.1160    3.5080   -3.7610 o         1 MOL     -0.684979
     46 H19        -3.6550    2.5760   -0.3240 hn        1 MOL      0.306983
     47 H20        -5.2080    4.4210   -1.8570 h1        1 MOL      0.056196
     48 H21        -5.7620    2.4740   -3.3640 hc        1 MOL      0.043230
     49 H22        -5.1190    1.4100   -2.1380 hc        1 MOL      0.043230
     50 N4         -6.9550    2.1200   -0.2590 n         1 MOL     -0.172609
     51 C17        -8.3010    1.4670   -0.1170 c3        1 MOL     -0.140867
     52 C18        -8.4890    0.2900   -1.0340 c         1 MOL      0.645393
     53 O9         -9.5970    0.0180   -1.4450 o         1 MOL     -0.601467
     54 H23        -6.1750    1.7080    0.2300 hn        1 MOL      0.113280
     55 H24        -9.1380    2.1190   -0.3700 h1        1 MOL      0.065831
     56 H25        -8.3990    1.0980    0.9080 h1        1 MOL      0.065831
     57 N5         -7.3390   -0.4090   -1.3390 n         1 MOL     -0.373044
     58 C19        -7.3410   -1.7370   -1.9250 c3        1 MOL      0.053374
     59 C20        -7.2970   -2.8350   -0.9110 c         1 MOL      0.509181
     60 O10        -7.6960   -3.9190   -1.2310 o         1 MOL     -0.574937
     61 C21        -6.2100   -2.0380   -2.9790 c3        1 MOL     -0.213839
     62 C22        -4.8230   -1.5050   -2.4490 c         1 MOL      0.705669
     63 O11        -3.9980   -0.9120   -3.1690 o         1 MOL     -0.737072
     64 O12        -4.3670   -1.7460   -1.2940 o         1 MOL     -0.737072
     65 H26        -6.4930   -0.1550   -0.8660 hn        1 MOL      0.192955
     66 H27        -8.2770   -1.9700   -2.4400 h1        1 MOL      0.074568
     67 H28        -6.3740   -1.4630   -3.8920 hc        1 MOL      0.063090
     68 H29        -6.2200   -3.1110   -3.1600 hc        1 MOL      0.063090
     69 N6         -7.0240   -2.6080    0.3660 n         1 MOL     -0.335060
     70 C23        -6.7510   -3.6950    1.3530 c3        1 MOL      0.056721
     71 C24        -5.3990   -4.4290    1.3470 c         1 MOL      0.450999
     72 O13        -5.3270   -5.5790    1.8180 o         1 MOL     -0.586481
     73 H30        -6.6480   -1.7060    0.5990 hn        1 MOL      0.155980
     74 H31        -7.5350   -4.4540    1.3190 h1        1 MOL      0.033628
     75 H32        -6.7920   -3.2650    2.3530 h1        1 MOL      0.033628
     76 N7         -4.3260   -3.8560    0.7700 n         1 MOL     -0.148223
     77 C25        -2.9820   -4.4370    0.7450 c3        1 MOL     -0.042063
     78 C26        -1.9160   -3.3450    1.0110 c         1 MOL      0.585904
     79 O14        -2.0960   -2.1250    0.7650 o         1 MOL     -0.539326
     80 C27        -2.7150   -5.3080   -0.4800 c3        1 MOL      0.165902
     81 C28        -3.0960   -4.8610   -1.9290 c3        1 MOL     -0.311738
     82 C29        -2.0560   -3.9000   -2.5900 c         1 MOL      0.626741
     83 N8         -1.7740   -3.9590   -3.9080 n         1 MOL     -0.812286
     84 O15        -1.6300   -2.9370   -1.8510 o         1 MOL     -0.547994
     85 H33        -4.4580   -2.9080    0.4280 hn        1 MOL      0.175892
     86 H34        -3.0310   -5.1870    1.5280 h1        1 MOL      0.044647
     87 H35        -3.2270   -6.2660   -0.3650 hc        1 MOL     -0.021312
     88 H36        -1.6520   -5.5610   -0.4200 hc        1 MOL     -0.021312
     89 H37        -4.0790   -4.3900   -2.0290 hc        1 MOL      0.098257
     90 H38        -3.0680   -5.7490   -2.5550 hc        1 MOL      0.098257
     91 H39        -2.3320   -4.5300   -4.5140 hn        1 MOL      0.383356
     92 H40        -1.0650   -3.3590   -4.3030 hn        1 MOL      0.383356
     93 N9         -0.7510   -3.8030    1.4990 n         1 MOL     -0.593740
     94 C30         0.3990   -2.9030    1.7490 c3        1 MOL      0.004505
     95 C31         1.5560   -3.3760    0.8280 c         1 MOL      0.553065
     96 O16         2.2610   -4.3380    1.1480 o         1 MOL     -0.600105
     97 C32         0.7650   -2.9330    3.2240 c3        1 MOL      0.462103
     98 C33         2.1490   -2.3410    3.3560 c3        1 MOL     -0.328857
     99 C34        -0.3150   -2.4210    4.1480 c3        1 MOL     -0.328857
    100 H41        -0.6650   -4.8050    1.6390 hn        1 MOL      0.318016
    101 H42         0.2480   -1.9000    1.3650 h1        1 MOL      0.145744
    102 H43         0.9110   -3.9800    3.5060 hc        1 MOL     -0.078047
    103 H44         2.2450   -1.9020    4.3490 hc        1 MOL      0.053487
    104 H45         2.8930   -3.1330    3.3400 hc        1 MOL      0.053487
    105 H46         2.3160   -1.5250    2.6630 hc        1 MOL      0.053487
    106 H47         0.1700   -2.4650    5.1150 hc        1 MOL      0.053487
    107 H48        -0.5230   -1.3890    3.8780 hc        1 MOL      0.053487
    108 H49        -1.2700   -2.9290    4.0650 hc        1 MOL      0.053487
    109 N10         1.8960   -2.5360   -0.1190 n         1 MOL     -0.350971
    110 C35         3.0790   -2.6220   -1.0150 c3        1 MOL      0.086187
    111 C36         4.3390   -1.9260   -0.4750 c         1 MOL      0.441095
    112 O17         4.1970   -1.2300    0.5540 o         1 MOL     -0.307160
    113 C37         2.7290   -2.1000   -2.4680 c3        1 MOL     -0.261052
    114 C38         3.1440   -0.6420   -2.7000 c         1 MOL      0.384539
    115 N11         2.2970    0.3180   -2.2990 n         1 MOL     -0.459864
    116 O18         4.0600   -0.3020   -3.3390 o         1 MOL     -0.479360
    117 H50         1.4040   -1.6550   -0.1290 hn        1 MOL      0.140814
    118 H51         3.2220   -3.7010   -1.0990 h1        1 MOL      0.059888
    119 H52         1.6450   -2.1960   -2.5930 hc        1 MOL      0.099867
    120 H53         3.2110   -2.7720   -3.1780 hc        1 MOL      0.099867
    121 H54         1.4300    0.1560   -1.8160 hn        1 MOL      0.317818
    122 H55         2.5130    1.2830   -2.5490 hn        1 MOL      0.317818
    123 N12         5.4830   -2.2420   -1.0720 n         1 MOL     -0.567993
    124 C39         6.7770   -1.8650   -0.5120 c3        1 MOL      0.227784
    125 C40         6.8630   -0.3850   -0.1860 c         1 MOL      0.660172
    126 O19         7.4720   -0.0300    0.8190 o         1 MOL     -0.525233
    127 C41         7.9260   -2.3520   -1.4150 c3        1 MOL     -0.147934
    128 C42         9.3030   -2.1060   -0.9010 ca        1 MOL      0.015485
    129 C43         9.8660   -2.8530    0.1300 ca        1 MOL     -0.167670
    130 C44        10.1020   -1.0980   -1.5240 ca        1 MOL     -0.167670
    131 C45        11.1340   -2.5440    0.6300 ca        1 MOL     -0.232160
    132 C46        11.4260   -0.9120   -1.1350 ca        1 MOL     -0.232160
    133 C47        11.8970   -1.5810   -0.0150 ca        1 MOL      0.361575
    134 O20        13.1400   -1.2990    0.4320 oh        1 MOL     -0.547392
    135 H56         5.4990   -2.8460   -1.8790 hn        1 MOL      0.304320
    136 H57         6.8830   -2.3310    0.4730 h1        1 MOL      0.016186
    137 H58         7.7920   -1.8410   -2.3640 hc        1 MOL      0.063092
    138 H59         7.7980   -3.4110   -1.6180 hc        1 MOL      0.063092
    139 H60         9.2300   -3.4910    0.7240 ha        1 MOL      0.140030
    140 H61         9.7210   -0.5800   -2.3970 ha        1 MOL      0.140030
    141 H62        11.4850   -3.1100    1.4750 ha        1 MOL      0.133577
    142 H63        12.0750   -0.2300   -1.6830 ha        1 MOL      0.133577
    143 H64        13.4780   -0.4870    0.0470 ho        1 MOL      0.384214
    144 N13         6.2800    0.4820   -1.0820 n         1 MOL     -0.577531
    145 C48         6.2000    1.9250   -0.7890 c3        1 MOL      0.186063
    146 C49         5.3690    2.2960    0.4620 c         1 MOL      0.230764
    147 O21         5.7450    3.1340    1.2680 o         1 MOL     -0.483295
    148 C50         5.6500    2.6990   -2.0350 c3        1 MOL      0.089923
    149 C51         6.6540    2.8990   -3.1250 c3        1 MOL     -0.124051
    150 C52         6.1460    3.9590   -4.0960 c         1 MOL      0.643178
    151 O22         6.7840    5.0170   -4.2310 o         1 MOL     -0.716794
    152 O23         5.0810    3.7270   -4.7620 o         1 MOL     -0.716794
    153 H65         5.6980    0.1670   -1.8470 hn        1 MOL      0.306448
    154 H66         7.1540    2.3760   -0.5220 h1        1 MOL      0.059747
    155 H67         5.3710    3.7060   -1.7530 hc        1 MOL      0.006230
    156 H68         4.8340    2.1240   -2.4730 hc        1 MOL      0.006230
    157 H69         6.8710    1.9410   -3.5870 hc        1 MOL     -0.024801
    158 H70         7.5870    3.1930   -2.6400 hc        1 MOL     -0.024801
    159 N14         4.1540    1.7120    0.6910 n         1 MOL     -0.164196
    160 C53         3.3770    2.0330    1.9200 c3        1 MOL     -0.038047
    161 C54         4.0390    1.4470    3.1960 c         1 MOL      0.388244
    162 O24         3.9990    1.9590    4.3320 o         1 MOL     -0.543529
    163 C55         1.9550    1.5710    1.7210 c3        1 MOL      0.024045
    164 C56         1.2630    1.9710    0.3850 c3        1 MOL      0.131071
    165 C57         0.0880    1.0540    0.0900 c         1 MOL      0.764621
    166 O25        -1.0210    1.5920   -0.0280 o         1 MOL     -0.751988
    167 O26         0.2160   -0.0850   -0.2560 o         1 MOL     -0.751988
    168 H71         3.8480    0.9390    0.1020 hn        1 MOL      0.032736
    169 H72         3.3350    3.1190    1.9430 h1        1 MOL      0.116375
    170 H73         1.4250    2.1120    2.5050 hc        1 MOL      0.022086
    171 H74         1.7680    0.5280    1.9760 hc        1 MOL      0.022086
    172 H75         1.9030    2.0780   -0.4880 hc        1 MOL     -0.057326
    173 H76         0.8040    2.9560    0.4480 hc        1 MOL     -0.057326
    174 N15         4.8510    0.3230    3.0670 n         1 MOL      0.123169
    175 C58         5.6250   -0.1830    4.1470 c3        1 MOL     -0.258187
    176 H77         5.9810    0.6450    4.7580 h1        1 MOL      0.075036
    177 H78         5.0100   -0.8460    4.7560 h1        1 MOL      0.075036
    178 H79         6.4780   -0.7370    3.7550 h1        1 MOL      0.075036
    179 H80         5.0460   -0.0290    2.1390 hn        1 MOL     -0.010654
    180 Ca1        -2.1680   -0.4390   -1.3680 Ca        1 MOL      1.668253
    181 O27        -0.4500    0.0450   -3.3630 oh        1 MOL     -0.784749
    182 H81        -0.0900    0.9040   -3.5820 ho        1 MOL      0.384866
    183 H82        -0.0480   -0.5570   -3.9970 ho        1 MOL      0.384866
@<TRIPOS>BOND
     1    1    2 1   
     2    1    4 1   
     3    1    5 1   
     4    1    6 1   
     5    2    3 2   
     6    2    7 1   
     7    7    8 1   
     8    7   15 1   
     9    8    9 1   
    10    8   11 1   
    11    8   16 1   
    12    9   10 2   
    13    9   19 1   
    14   11   12 1   
    15   11   17 1   
    16   11   18 1   
    17   12   13 1   
    18   12   14 1   
    19   19   20 1   
    20   19   27 1   
    21   20   21 1   
    22   20   23 1   
    23   20   28 1   
    24   21   22 2   
    25   21   38 1   
    26   23   24 1   
    27   23   25 1   
    28   23   29 1   
    29   24   26 1   
    30   24   30 1   
    31   24   31 1   
    32   25   32 1   
    33   25   33 1   
    34   25   34 1   
    35   26   35 1   
    36   26   36 1   
    37   26   37 1   
    38   38   39 1   
    39   38   46 1   
    40   39   40 1   
    41   39   42 1   
    42   39   47 1   
    43   40   41 2   
    44   40   50 1   
    45   42   43 1   
    46   42   48 1   
    47   42   49 1   
    48   43   44 1   
    49   43   45 1   
    50   50   51 1   
    51   50   54 1   
    52   51   52 1   
    53   51   55 1   
    54   51   56 1   
    55   52   53 2   
    56   52   57 1   
    57   57   58 1   
    58   57   65 1   
    59   58   59 1   
    60   58   61 1   
    61   58   66 1   
    62   59   60 2   
    63   59   69 1   
    64   61   62 1   
    65   61   67 1   
    66   61   68 1   
    67   62   63 1   
    68   62   64 1   
    69   69   70 1   
    70   69   73 1   
    71   70   71 1   
    72   70   74 1   
    73   70   75 1   
    74   71   72 2   
    75   71   76 1   
    76   76   77 1   
    77   76   85 1   
    78   77   78 1   
    79   77   80 1   
    80   77   86 1   
    81   78   79 2   
    82   78   93 1   
    83   80   81 1   
    84   80   87 1   
    85   80   88 1   
    86   81   82 1   
    87   81   89 1   
    88   81   90 1   
    89   82   83 1   
    90   82   84 2   
    91   83   91 1   
    92   83   92 1   
    93   93   94 1   
    94   93  100 1   
    95   94   95 1   
    96   94   97 1   
    97   94  101 1   
    98   95   96 2   
    99   95  109 1   
   100   97   98 1   
   101   97   99 1   
   102   97  102 1   
   103   98  103 1   
   104   98  104 1   
   105   98  105 1   
   106   99  106 1   
   107   99  107 1   
   108   99  108 1   
   109  109  110 1   
   110  109  117 1   
   111  110  111 1   
   112  110  113 1   
   113  110  118 1   
   114  111  112 2   
   115  111  123 1   
   116  113  114 1   
   117  113  119 1   
   118  113  120 1   
   119  114  115 1   
   120  114  116 2   
   121  115  121 1   
   122  115  122 1   
   123  123  124 1   
   124  123  135 1   
   125  124  125 1   
   126  124  127 1   
   127  124  136 1   
   128  125  126 2   
   129  125  144 1   
   130  127  128 1   
   131  127  137 1   
   132  127  138 1   
   133  128  129 ar  
   134  128  130 ar  
   135  129  131 ar  
   136  129  139 1   
   137  130  132 ar  
   138  130  140 1   
   139  131  133 ar  
   140  131  141 1   
   141  132  133 ar  
   142  132  142 1   
   143  133  134 1   
   144  134  143 1   
   145  144  145 1   
   146  144  153 1   
   147  145  146 1   
   148  145  148 1   
   149  145  154 1   
   150  146  147 2   
   151  146  159 1   
   152  148  149 1   
   153  148  155 1   
   154  148  156 1   
   155  149  150 1   
   156  149  157 1   
   157  149  158 1   
   158  150  151 1   
   159  150  152 1   
   160  159  160 1   
   161  159  168 1   
   162  160  161 1   
   163  160  163 1   
   164  160  169 1   
   165  161  162 2   
   166  161  174 1   
   167  163  164 1   
   168  163  170 1   
   169  163  171 1   
   170  164  165 1   
   171  164  172 1   
   172  164  173 1   
   173  165  166 1   
   174  165  167 1   
   175  174  175 1   
   176  174  179 1   
   177  175  176 1   
   178  175  177 1   
   179  175  178 1   
   180  181  182 1   
   181  181  183 1   
@<TRIPOS>SUBSTRUCTURE
     1 MOL         1 TEMP              0 ****  ****    0 ROOT
