@<TRIPOS>MOLECULE
MOL
  175   173     1     0     0
SMALL
resp


@<TRIPOS>ATOM
      1 C1          0.7210    4.8490    5.0130 c3        1 MOL     -0.382281
      2 C2          0.1770    4.3570    3.6250 c         1 MOL      0.769653
      3 O1          0.8960    4.3690    2.6410 o         1 MOL     -0.593049
      4 H1         -0.1170    5.0480    5.6820 hc        1 MOL      0.087412
      5 H2          1.3590    4.0790    5.4480 hc        1 MOL      0.087412
      6 H3          1.2980    5.7630    4.8730 hc        1 MOL      0.087412
      7 N1         -1.0960    4.0150    3.5790 n         1 MOL     -0.648506
      8 C3         -1.9020    3.7130    2.3730 c3        1 MOL      0.040574
      9 C4         -2.1100    4.8800    1.3670 c         1 MOL      0.592189
     10 O2         -2.5980    5.9490    1.6990 o         1 MOL     -0.552933
     11 C5         -3.3120    3.3630    2.8090 c3        1 MOL     -0.294405
     12 C6         -4.2530    2.8800    1.7000 c         1 MOL      0.717004
     13 O3         -5.3920    3.3040    1.7590 o         1 MOL     -0.630543
     14 O4         -3.9550    1.8900    1.0030 o         1 MOL     -0.630543
     15 H4         -1.6870    4.2360    4.3740 hn        1 MOL      0.333006
     16 H5         -1.3960    2.8660    1.9130 h1        1 MOL      0.143734
     17 H6         -3.7980    4.2170    3.2750 hc        1 MOL      0.061429
     18 H7         -3.2200    2.5940    3.5670 hc        1 MOL      0.061429
     19 N2         -1.7790    4.5690    0.1120 n         1 MOL     -0.437000
     20 C7         -2.0500    5.4110   -1.0970 c3        1 MOL      0.135672
     21 C8         -3.3640    5.0190   -1.8010 c         1 MOL      0.465529
     22 O5         -4.1380    5.8610   -2.3550 o         1 MOL     -0.590662
     23 C9         -0.8590    5.5090   -2.0340 c3        1 MOL     -0.212632
     24 H8         -1.1960    3.7580   -0.0710 hn        1 MOL      0.265311
     25 H9         -2.2050    6.4160   -0.7030 h1        1 MOL      0.047587
     26 H10        -0.9820    6.2300   -2.8450 hc        1 MOL      0.060042
     27 H11         0.0620    5.7800   -1.5270 hc        1 MOL      0.060042
     28 H12        -0.6020    4.5450   -2.4800 hc        1 MOL      0.060042
     29 N3         -3.8260    3.7370   -1.8280 n         1 MOL     -0.197209
     30 C10        -4.7140    3.1980   -2.9210 c3        1 MOL      0.005827
     31 C11        -5.9290    2.3320   -2.5270 c         1 MOL      0.378467
     32 O6         -6.6490    1.9190   -3.4230 o         1 MOL     -0.539160
     33 C12        -3.8990    2.3580   -3.8850 c3        1 MOL     -0.230974
     34 C13        -3.2770    1.1200   -3.1920 c         1 MOL      0.652063
     35 O7         -3.5130    0.7940   -2.0020 o         1 MOL     -0.663101
     36 O8         -2.5330    0.4030   -3.8680 o         1 MOL     -0.663101
     37 H13        -3.3460    2.9870   -1.3520 hn        1 MOL      0.161267
     38 H14        -5.1670    3.9840   -3.5290 h1        1 MOL      0.106535
     39 H15        -3.2330    2.9200   -4.5360 hc        1 MOL      0.071799
     40 H16        -4.5790    1.8890   -4.5950 hc        1 MOL      0.071799
     41 N4         -6.1610    2.0290   -1.2110 n         1 MOL     -0.096545
     42 C14        -7.2860    1.2320   -0.7300 c3        1 MOL     -0.111398
     43 C15        -7.3570   -0.2180   -1.1800 c         1 MOL      0.465341
     44 O9         -8.4320   -0.8570   -1.0600 o         1 MOL     -0.603772
     45 H17        -5.5240    2.4670   -0.5620 hn        1 MOL      0.052985
     46 H18        -8.1940    1.7520   -1.0180 h1        1 MOL      0.079366
     47 H19        -7.2280    1.2100    0.3590 h1        1 MOL      0.079366
     48 N5         -6.2520   -0.8090   -1.7180 n         1 MOL     -0.104207
     49 C16        -6.1770   -2.1660   -2.3100 c3        1 MOL     -0.024665
     50 C17        -6.2330   -3.3340   -1.2130 c         1 MOL      0.404879
     51 O10        -6.1160   -4.5200   -1.5200 o         1 MOL     -0.520787
     52 C18        -4.9750   -2.2720   -3.2500 c3        1 MOL     -0.155567
     53 C19        -3.5860   -2.2190   -2.4710 c         1 MOL      0.241751
     54 N6         -2.5290   -2.3130   -3.2180 n         1 MOL     -0.376472
     55 O11        -3.5050   -2.0910   -1.2650 o         1 MOL     -0.170970
     56 H20        -5.4140   -0.2660   -1.8040 hn        1 MOL      0.090301
     57 H21        -6.9740   -2.3350   -3.0340 h1        1 MOL      0.076338
     58 H22        -5.0290   -1.4500   -3.9570 hc        1 MOL      0.082160
     59 H23        -5.0010   -3.2250   -3.7770 hc        1 MOL      0.082160
     60 H24        -2.6520   -2.6170   -4.1670 hn        1 MOL      0.265221
     61 H25        -1.5840   -2.2770   -2.8640 hn        1 MOL      0.265221
     62 N7         -6.4100   -2.9450    0.0510 n         1 MOL     -0.215473
     63 C20        -6.4510   -3.8720    1.2110 c3        1 MOL     -0.225133
     64 C21        -5.1040   -4.4490    1.7560 c         1 MOL      0.511556
     65 O12        -5.2130   -5.3590    2.6050 o         1 MOL     -0.560189
     66 H26        -6.3940   -1.9430    0.1930 hn        1 MOL      0.230903
     67 H27        -7.0810   -4.7030    0.9060 h1        1 MOL      0.114192
     68 H28        -6.9800   -3.4070    2.0470 h1        1 MOL      0.114192
     69 N8         -3.9240   -3.9700    1.2960 n         1 MOL     -0.017156
     70 C22        -2.6340   -4.4570    1.7710 c3        1 MOL     -0.544798
     71 C23        -1.6930   -3.2190    2.0550 c         1 MOL      0.742467
     72 O13        -1.8250   -2.1950    1.4330 o         1 MOL     -0.635127
     73 C24        -1.9440   -5.4160    0.7970 c3        1 MOL      0.745711
     74 C25        -2.5360   -6.8200    0.8240 c3        1 MOL     -0.597696
     75 O14        -2.0470   -4.9220   -0.5540 oh        1 MOL     -0.627951
     76 H29        -3.8530   -3.2720    0.5670 hn        1 MOL      0.029728
     77 H30        -2.7430   -4.9420    2.7500 h1        1 MOL      0.153035
     78 H31        -0.8810   -5.5580    0.9840 h1        1 MOL     -0.063604
     79 H32        -2.0400   -3.9660   -0.4990 ho        1 MOL      0.299356
     80 H33        -3.5580   -6.9200    0.4690 hc        1 MOL      0.145056
     81 H34        -1.8410   -7.3150    0.1530 hc        1 MOL      0.145056
     82 H35        -2.5020   -7.3350    1.7900 hc        1 MOL      0.145056
     83 N9         -0.5480   -3.3640    2.7590 n         1 MOL     -0.575314
     84 C26         0.7020   -2.5480    2.5570 c3        1 MOL      0.018615
     85 C27         1.3690   -2.9710    1.2210 c         1 MOL      0.580952
     86 O15         1.5260   -4.1600    0.9300 o         1 MOL     -0.568646
     87 C28         1.6580   -2.8490    3.7680 c3        1 MOL      0.128223
     88 C29         1.1440   -2.2240    5.1260 c3        1 MOL     -0.138769
     89 C30         3.1700   -2.6570    3.5410 c3        1 MOL     -0.101283
     90 C31         1.6810   -0.7980    5.4440 c3        1 MOL     -0.005512
     91 H36        -0.4620   -4.1130    3.4430 hn        1 MOL      0.270404
     92 H37         0.3430   -1.5130    2.5620 h1        1 MOL      0.154503
     93 H38         1.6270   -3.9300    3.8780 hc        1 MOL     -0.006087
     94 H39         1.4610   -2.8340    5.9710 hc        1 MOL      0.029020
     95 H40         0.0590   -2.2360    4.9580 hc        1 MOL      0.029020
     96 H41         3.4490   -1.6210    3.3450 hc        1 MOL      0.014931
     97 H42         3.7300   -2.9320    4.4430 hc        1 MOL      0.014931
     98 H43         3.5690   -3.2820    2.7360 hc        1 MOL      0.014931
     99 H44         1.5480   -0.1160    4.6030 hc        1 MOL      0.007056
    100 H45         1.0290   -0.3560    6.2010 hc        1 MOL      0.007056
    101 H46         2.7260   -0.6680    5.7170 hc        1 MOL      0.007056
    102 N10         1.8610   -1.9860    0.4810 n         1 MOL     -0.210201
    103 C32         2.5420   -2.0980   -0.7880 c3        1 MOL     -0.054615
    104 C33         3.9840   -1.5960   -0.7290 c         1 MOL      0.649010
    105 O16         4.2390   -0.7450    0.1180 o         1 MOL     -0.517745
    106 C34         1.8460   -1.3390   -1.8500 c3        1 MOL     -0.189576
    107 C35         0.3900   -1.7970   -2.0150 c         1 MOL      0.783073
    108 O17        -0.5140   -1.3380   -1.3390 o         1 MOL     -0.681591
    109 O18         0.1720   -2.4050   -3.0630 o         1 MOL     -0.681591
    110 H47         1.6520   -1.0640    0.8270 hn        1 MOL      0.068776
    111 H48         2.5960   -3.1450   -1.0930 h1        1 MOL      0.070901
    112 H49         2.4510   -1.4680   -2.7480 hc        1 MOL      0.050912
    113 H50         1.9050   -0.2690   -1.6360 hc        1 MOL      0.050912
    114 N11         4.9710   -1.8720   -1.5250 n         1 MOL     -0.773279
    115 C36         6.4230   -1.5550   -1.2770 c3        1 MOL      0.570135
    116 C37         6.6870   -0.0130   -1.0330 c         1 MOL      0.123318
    117 O19         7.5440    0.2420   -0.1470 o         1 MOL     -0.491256
    118 C38         7.2380   -2.2320   -2.3340 c3        1 MOL     -0.320778
    119 C39         8.7830   -1.9800   -2.3250 ca        1 MOL      0.131243
    120 C40         9.4760   -2.5630   -1.2430 ca        1 MOL     -0.140549
    121 C41         9.4840   -1.3250   -3.3290 ca        1 MOL     -0.140549
    122 C42        10.9160   -2.4860   -1.1860 ca        1 MOL     -0.167984
    123 C43        10.8970   -1.1590   -3.2560 ca        1 MOL     -0.167984
    124 C44        11.6010   -1.6850   -2.1450 ca        1 MOL     -0.065950
    125 H51         4.8350   -2.4890   -2.3270 hn        1 MOL      0.357143
    126 H52         6.7840   -2.0140   -0.3510 h1        1 MOL      0.020366
    127 H53         6.8420   -2.0570   -3.3390 hc        1 MOL      0.075505
    128 H54         7.0880   -3.3000   -2.2080 hc        1 MOL      0.075505
    129 H55         8.9700   -3.0040   -0.3960 ha        1 MOL      0.119351
    130 H56         9.0540   -0.7960   -4.1670 ha        1 MOL      0.119351
    131 H57        11.4390   -2.9210   -0.3500 ha        1 MOL      0.128072
    132 H58        11.4910   -0.5860   -3.9530 ha        1 MOL      0.128072
    133 H59        12.6500   -1.4570   -2.0700 ha        1 MOL      0.095717
    134 N12         6.1800    0.9400   -1.7780 n         1 MOL      0.139639
    135 C45         6.3340    2.3550   -1.6070 c3        1 MOL     -0.027322
    136 C46         5.6600    2.7520   -0.2950 c         1 MOL      0.231912
    137 O20         6.0550    3.7500    0.3300 o         1 MOL     -0.507896
    138 C47         5.6470    3.1030   -2.8450 c3        1 MOL      0.003025
    139 C48         5.7740    1.9370   -3.7670 c3        1 MOL     -0.024499
    140 C49         5.5630    0.6940   -3.0570 c3        1 MOL     -0.207139
    141 H60         7.3680    2.6730   -1.5080 h1        1 MOL      0.093276
    142 H61         4.5890    3.2730   -2.6360 hc        1 MOL      0.047519
    143 H62         6.1990    3.9690   -3.2030 hc        1 MOL      0.047519
    144 H63         5.0990    2.1380   -4.6060 hc        1 MOL      0.018199
    145 H64         6.8390    1.9770   -4.0170 hc        1 MOL      0.018199
    146 H65         4.5010    0.5780   -2.8550 h1        1 MOL      0.093265
    147 H66         5.9280   -0.2010   -3.5650 h1        1 MOL      0.093265
    148 N13         4.7330    1.9790    0.2670 n         1 MOL     -0.067064
    149 C50         4.0950    2.1590    1.6080 c3        1 MOL     -0.063863
    150 C51         4.9470    1.6410    2.8140 c         1 MOL      0.453538
    151 O21         5.0510    2.3020    3.8240 o         1 MOL     -0.571410
    152 C52         2.6430    1.5400    1.6350 c3        1 MOL      0.034731
    153 C53         1.7390    1.9420    0.4340 c3        1 MOL     -0.309204
    154 C54         0.2950    1.4740    0.5490 c         1 MOL      0.805088
    155 O22        -0.0150    0.5440    1.2940 o         1 MOL     -0.749600
    156 O23        -0.6160    1.9290   -0.1590 o         1 MOL     -0.749600
    157 H67         4.5320    1.0900   -0.1590 hn        1 MOL      0.114168
    158 H68         4.0480    3.2340    1.7740 h1        1 MOL      0.118512
    159 H69         2.2180    1.8030    2.6140 hc        1 MOL      0.017472
    160 H70         2.8140    0.4630    1.6720 hc        1 MOL      0.017472
    161 H71         2.1830    1.4070   -0.4030 hc        1 MOL      0.100348
    162 H72         1.6340    3.0160    0.2350 hc        1 MOL      0.100348
    163 N14         5.7080    0.6290    2.5980 n         1 MOL     -0.021545
    164 C55         6.7590    0.0980    3.4700 c3        1 MOL     -0.244523
    165 H73         7.5710   -0.2970    2.8610 h1        1 MOL      0.090954
    166 H74         7.1400    0.8960    4.1090 h1        1 MOL      0.090954
    167 H75         6.3480   -0.6990    4.0900 h1        1 MOL      0.090954
    168 H76         5.4330    0.0870    1.7960 hn        1 MOL      0.130704
    169 Ca1        -2.2760   -0.1020    0.0930 Ca        1 MOL      1.610285
    170 O24        -4.7720   -0.6530    1.3910 oh        1 MOL     -0.837215
    171 H77        -4.6450    0.2830    1.5520 ho        1 MOL      0.398730
    172 H78        -5.1920   -0.9790    2.1760 ho        1 MOL      0.398730
    173 O25        -2.0500    0.4100    2.9590 oh        1 MOL     -0.837215
    174 H79        -1.9980    0.5230    3.9160 ho        1 MOL      0.398730
    175 H80        -1.1380    0.3340    2.6760 ho        1 MOL      0.398730
@<TRIPOS>BOND
     1    1    2 1   
     2    1    4 1   
     3    1    5 1   
     4    1    6 1   
     5    2    3 2   
     6    2    7 1   
     7    7    8 1   
     8    7   15 1   
     9    8    9 1   
    10    8   11 1   
    11    8   16 1   
    12    9   10 2   
    13    9   19 1   
    14   11   12 1   
    15   11   17 1   
    16   11   18 1   
    17   12   13 1   
    18   12   14 1   
    19   19   20 1   
    20   19   24 1   
    21   20   21 1   
    22   20   23 1   
    23   20   25 1   
    24   21   22 2   
    25   21   29 1   
    26   23   26 1   
    27   23   27 1   
    28   23   28 1   
    29   29   30 1   
    30   29   37 1   
    31   30   31 1   
    32   30   33 1   
    33   30   38 1   
    34   31   32 2   
    35   31   41 1   
    36   33   34 1   
    37   33   39 1   
    38   33   40 1   
    39   34   35 1   
    40   34   36 1   
    41   41   42 1   
    42   41   45 1   
    43   42   43 1   
    44   42   46 1   
    45   42   47 1   
    46   43   44 2   
    47   43   48 1   
    48   48   49 1   
    49   48   56 1   
    50   49   50 1   
    51   49   52 1   
    52   49   57 1   
    53   50   51 2   
    54   50   62 1   
    55   52   53 1   
    56   52   58 1   
    57   52   59 1   
    58   53   54 1   
    59   53   55 2   
    60   54   60 1   
    61   54   61 1   
    62   62   63 1   
    63   62   66 1   
    64   63   64 1   
    65   63   67 1   
    66   63   68 1   
    67   64   65 2   
    68   64   69 1   
    69   69   70 1   
    70   69   76 1   
    71   70   71 1   
    72   70   73 1   
    73   70   77 1   
    74   71   72 2   
    75   71   83 1   
    76   73   74 1   
    77   73   75 1   
    78   73   78 1   
    79   74   80 1   
    80   74   81 1   
    81   74   82 1   
    82   75   79 1   
    83   83   84 1   
    84   83   91 1   
    85   84   85 1   
    86   84   87 1   
    87   84   92 1   
    88   85   86 2   
    89   85  102 1   
    90   87   88 1   
    91   87   89 1   
    92   87   93 1   
    93   88   90 1   
    94   88   94 1   
    95   88   95 1   
    96   89   96 1   
    97   89   97 1   
    98   89   98 1   
    99   90   99 1   
   100   90  100 1   
   101   90  101 1   
   102  102  103 1   
   103  102  110 1   
   104  103  104 1   
   105  103  106 1   
   106  103  111 1   
   107  104  105 2   
   108  104  114 1   
   109  106  107 1   
   110  106  112 1   
   111  106  113 1   
   112  107  108 1   
   113  107  109 1   
   114  114  115 1   
   115  114  125 1   
   116  115  116 1   
   117  115  118 1   
   118  115  126 1   
   119  116  117 2   
   120  116  134 1   
   121  118  119 1   
   122  118  127 1   
   123  118  128 1   
   124  119  120 ar  
   125  119  121 ar  
   126  120  122 ar  
   127  120  129 1   
   128  121  123 ar  
   129  121  130 1   
   130  122  124 ar  
   131  122  131 1   
   132  123  124 ar  
   133  123  132 1   
   134  124  133 1   
   135  134  135 1   
   136  134  140 1   
   137  135  136 1   
   138  135  138 1   
   139  135  141 1   
   140  136  137 2   
   141  136  148 1   
   142  138  139 1   
   143  138  142 1   
   144  138  143 1   
   145  139  140 1   
   146  139  144 1   
   147  139  145 1   
   148  140  146 1   
   149  140  147 1   
   150  148  149 1   
   151  148  157 1   
   152  149  150 1   
   153  149  152 1   
   154  149  158 1   
   155  150  151 2   
   156  150  163 1   
   157  152  153 1   
   158  152  159 1   
   159  152  160 1   
   160  153  154 1   
   161  153  161 1   
   162  153  162 1   
   163  154  155 1   
   164  154  156 1   
   165  163  164 1   
   166  163  168 1   
   167  164  165 1   
   168  164  166 1   
   169  164  167 1   
   170  170  171 1   
   171  170  172 1   
   172  173  174 1   
   173  173  175 1   
@<TRIPOS>SUBSTRUCTURE
     1 MOL         1 TEMP              0 ****  ****    0 ROOT
