@<TRIPOS>MOLECULE
MOL
  172   171     1     0     0
SMALL
resp


@<TRIPOS>ATOM
      1 C1          0.1110   -3.4660    5.8830 c3        1 MOL     -0.301916
      2 C2          0.5000   -3.2990    4.4210 c         1 MOL      0.748002
      3 O1         -0.1520   -3.9250    3.5520 o         1 MOL     -0.598861
      4 H1         -0.9340   -3.7710    5.9480 hc        1 MOL      0.065661
      5 H2          0.7410   -4.2270    6.3430 hc        1 MOL      0.065661
      6 H3          0.2450   -2.5190    6.4060 hc        1 MOL      0.065661
      7 N1          1.5710   -2.6190    4.1460 n         1 MOL     -0.638126
      8 C3          2.0460   -2.2800    2.7960 c3        1 MOL      0.239968
      9 C4          2.4870   -3.5510    2.0180 c         1 MOL      0.586087
     10 O2          3.1930   -4.4030    2.5480 o         1 MOL     -0.610290
     11 C5          3.1720   -1.2540    2.8930 c3        1 MOL     -0.279328
     12 C6          3.3780   -0.5960    1.5310 c         1 MOL      0.847556
     13 O3          3.4870   -1.2670    0.4700 o         1 MOL     -0.762177
     14 O4          3.4130    0.6170    1.3510 o         1 MOL     -0.762177
     15 H4          1.9480   -2.1870    4.9790 hn        1 MOL      0.313488
     16 H5          1.2150   -1.7800    2.3050 h1        1 MOL      0.078487
     17 H6          4.0990   -1.7040    3.2440 hc        1 MOL      0.048513
     18 H7          2.7800   -0.5230    3.6040 hc        1 MOL      0.048513
     19 N2          1.9420   -3.7970    0.7930 n         1 MOL     -0.184589
     20 C7          1.9540   -5.0820    0.1420 c3        1 MOL      0.075619
     21 C8          3.0040   -5.2020   -0.9920 c         1 MOL      0.458925
     22 O5          3.6660   -6.2030   -1.1110 o         1 MOL     -0.582842
     23 C9          0.5020   -5.2570   -0.3790 c3        1 MOL     -0.332461
     24 H8          1.5620   -3.0110    0.2780 hn        1 MOL      0.107314
     25 H9          2.1590   -5.8800    0.8520 h1        1 MOL      0.074692
     26 H10         0.3950   -6.2110   -0.8890 hc        1 MOL      0.082576
     27 H11        -0.1240   -5.2890    0.5200 hc        1 MOL      0.082576
     28 H12         0.2260   -4.5000   -1.1140 hc        1 MOL      0.082576
     29 N3          3.3920   -4.0930   -1.6300 n         1 MOL     -0.173541
     30 C10         4.5070   -3.8930   -2.5110 c3        1 MOL     -0.030796
     31 C11         5.7290   -3.3920   -1.8530 c         1 MOL      0.470271
     32 O6          6.7920   -3.5070   -2.4850 o         1 MOL     -0.568601
     33 C12         4.0960   -3.0120   -3.6070 c3        1 MOL     -0.094115
     34 C13         3.6530   -1.6270   -3.0820 c         1 MOL      0.749460
     35 O7          2.4380   -1.2860   -3.2730 o         1 MOL     -0.764408
     36 O8          4.2750   -0.9920   -2.2220 o         1 MOL     -0.764408
     37 H13         2.9000   -3.2840   -1.2710 hn        1 MOL      0.139414
     38 H14         4.7270   -4.8720   -2.9390 h1        1 MOL      0.105006
     39 H15         3.2820   -3.3600   -4.2410 hc        1 MOL      0.018776
     40 H16         4.9330   -2.8330   -4.2870 hc        1 MOL      0.018776
     41 N4          5.6760   -2.9450   -0.5750 n         1 MOL     -0.169844
     42 C14         6.6860   -2.4870    0.3250 c3        1 MOL     -0.091577
     43 C15         7.2460   -1.1260    0.1530 c         1 MOL      0.460997
     44 O9          8.3880   -0.8110    0.5400 o         1 MOL     -0.605973
     45 H17         4.7240   -2.8650   -0.2420 hn        1 MOL      0.097705
     46 H18         7.4730   -3.2430    0.3740 h1        1 MOL      0.081052
     47 H19         6.2720   -2.5060    1.3320 h1        1 MOL      0.081052
     48 N5          6.5360   -0.2430   -0.5670 n         1 MOL     -0.155213
     49 C16         7.0180    1.0370   -0.9440 c3        1 MOL     -0.016593
     50 C17         6.7560    2.1000    0.1380 c         1 MOL      0.373481
     51 O10         7.1460    3.2640   -0.0740 o         1 MOL     -0.535380
     52 C18         6.4800    1.4400   -2.3790 c3        1 MOL     -0.351260
     53 C19         5.2280    2.2900   -2.2530 c         1 MOL      0.705753
     54 N6          5.2250    3.5220   -2.7460 n         1 MOL     -0.723360
     55 O11         4.2410    2.0000   -1.6210 o         1 MOL     -0.602724
     56 H20         5.6090   -0.4630   -0.9100 hn        1 MOL      0.233511
     57 H21         8.1020    1.0030   -1.0160 h1        1 MOL      0.127918
     58 H22         6.2860    0.5960   -3.0300 hc        1 MOL      0.120839
     59 H23         7.2740    2.0490   -2.8120 hc        1 MOL      0.120839
     60 H24         6.0060    3.8390   -3.3060 hn        1 MOL      0.330366
     61 H25         4.4340    4.1220   -2.5370 hn        1 MOL      0.330366
     62 N7          6.0590    1.8160    1.2420 n         1 MOL     -0.153490
     63 C20         5.7420    2.8360    2.2730 c3        1 MOL     -0.252840
     64 C21         4.6760    3.9200    1.8710 c         1 MOL      0.549028
     65 O12         4.7110    4.9760    2.5460 o         1 MOL     -0.605722
     66 H26         5.7000    0.8830    1.3520 hn        1 MOL      0.211619
     67 H27         6.6420    3.4160    2.4650 h1        1 MOL      0.120430
     68 H28         5.3530    2.3260    3.1490 h1        1 MOL      0.120430
     69 N8          3.8050    3.7930    0.9300 n         1 MOL     -0.058811
     70 C22         2.5130    4.5300    0.9320 c3        1 MOL     -0.295342
     71 C23         1.3740    3.4690    0.7710 c         1 MOL      0.822100
     72 O13         1.5120    2.4690    0.0700 o         1 MOL     -0.583514
     73 C24         2.3340    5.4260   -0.2870 c3        1 MOL      0.314208
     74 C25         3.2970    6.6000   -0.2010 c3        1 MOL     -0.454005
     75 O14         2.4290    4.7850   -1.5400 oh        1 MOL     -0.584549
     76 H29         3.9300    2.9740    0.3600 hn        1 MOL      0.114575
     77 H30         2.3280    5.1190    1.8260 h1        1 MOL      0.144022
     78 H31         1.3110    5.8120   -0.2990 h1        1 MOL      0.026008
     79 H32         2.5380    5.4730   -2.1940 ho        1 MOL      0.402309
     80 H33         4.2790    6.1530   -0.3880 hc        1 MOL      0.117734
     81 H34         3.2520    7.3210   -1.0220 hc        1 MOL      0.117734
     82 H35         3.4110    7.0940    0.7580 hc        1 MOL      0.117734
     83 N9          0.3030    3.7030    1.5510 n         1 MOL     -0.688208
     84 C26        -0.8260    2.7670    1.5940 c3        1 MOL     -0.000415
     85 C27        -1.7350    2.9510    0.3910 c         1 MOL      0.596164
     86 O15        -2.2090    4.0300    0.1170 o         1 MOL     -0.595546
     87 C28        -1.7450    3.0680    2.8640 c3        1 MOL      0.125421
     88 C29        -0.9520    3.4700    4.1320 c3        1 MOL      0.090104
     89 C30        -2.6640    1.8630    3.0210 c3        1 MOL     -0.173523
     90 C31        -1.9370    3.8150    5.2020 c3        1 MOL     -0.174498
     91 H36         0.1180    4.6030    1.9630 hn        1 MOL      0.327726
     92 H37        -0.3600    1.7850    1.6530 h1        1 MOL      0.137964
     93 H38        -2.3670    3.9560    2.7310 hc        1 MOL     -0.008405
     94 H39        -0.2770    4.3010    3.9600 hc        1 MOL     -0.007905
     95 H40        -0.3510    2.6450    4.5080 hc        1 MOL     -0.007905
     96 H41        -3.3710    1.9330    3.8480 hc        1 MOL      0.022289
     97 H42        -3.3230    1.7020    2.1670 hc        1 MOL      0.022289
     98 H43        -2.2280    0.8730    3.1690 hc        1 MOL      0.022289
     99 H44        -1.4690    4.4070    5.9880 hc        1 MOL      0.030831
    100 H45        -2.7680    4.4160    4.8360 hc        1 MOL      0.030831
    101 H46        -2.4910    2.9970    5.6600 hc        1 MOL      0.030831
    102 N10        -1.9010    1.8640   -0.4220 n         1 MOL     -0.196107
    103 C32        -2.8770    1.7980   -1.4920 c3        1 MOL      0.119287
    104 C33        -4.2110    1.3610   -0.9210 c         1 MOL      0.360692
    105 O16        -4.3110    0.8440    0.1940 o         1 MOL     -0.253855
    106 C34        -2.3870    0.8870   -2.5350 c3        1 MOL     -0.489023
    107 C35        -1.0020    1.3500   -3.0680 c         1 MOL      0.785916
    108 O17        -0.8460    2.1890   -3.9910 o         1 MOL     -0.676147
    109 O18        -0.0150    0.8990   -2.4740 o         1 MOL     -0.676147
    110 H47        -1.4590    0.9850   -0.1790 hn        1 MOL      0.003635
    111 H48        -3.0070    2.7780   -1.9470 h1        1 MOL      0.076425
    112 H49        -2.9660    0.9170   -3.4510 hc        1 MOL      0.136968
    113 H50        -2.4220   -0.1300   -2.1500 hc        1 MOL      0.136968
    114 N11        -5.3600    1.5770   -1.5690 n         1 MOL     -0.593144
    115 C36        -6.7370    1.1990   -1.1720 c3        1 MOL      0.243089
    116 C37        -6.8230   -0.2960   -1.0050 c         1 MOL      0.366083
    117 O19        -7.4000   -0.6470    0.0140 o         1 MOL     -0.469760
    118 C38        -7.7700    1.7110   -2.1620 c3        1 MOL     -0.128313
    119 C39        -9.1950    1.4620   -1.6280 ca        1 MOL      0.093647
    120 C40        -9.9240    0.4820   -2.2540 ca        1 MOL     -0.193898
    121 C41        -9.6570    2.0830   -0.4820 ca        1 MOL     -0.193898
    122 C42       -11.1890    0.1320   -1.7240 ca        1 MOL     -0.054535
    123 C43       -10.9330    1.8040    0.0490 ca        1 MOL     -0.054535
    124 C44       -11.6470    0.7840   -0.5670 ca        1 MOL     -0.177607
    125 H51        -5.3060    2.2390   -2.3360 hn        1 MOL      0.313426
    126 H52        -7.1120    1.6030   -0.2370 h1        1 MOL      0.063580
    127 H53        -7.6440    1.1080   -3.0610 hc        1 MOL      0.048567
    128 H54        -7.7560    2.7480   -2.5110 hc        1 MOL      0.048567
    129 H55        -9.4810   -0.0490   -3.0870 ha        1 MOL      0.123073
    130 H56        -9.1310    2.8930   -0.0030 ha        1 MOL      0.123073
    131 H57       -11.7950   -0.6280   -2.2000 ha        1 MOL      0.100090
    132 H58       -11.3100    2.3520    0.9030 ha        1 MOL      0.100090
    133 H59       -12.5280    0.3480   -0.1310 ha        1 MOL      0.112956
    134 N12        -6.1460   -1.2090   -1.7670 n         1 MOL     -0.134238
    135 C45        -6.0700   -2.6260   -1.3010 c3        1 MOL      0.013530
    136 C46        -5.4090   -2.8760    0.0370 c         1 MOL      0.332137
    137 O20        -5.6340   -3.8880    0.6770 o         1 MOL     -0.507298
    138 C47        -5.4260   -3.4200   -2.4640 c3        1 MOL     -0.057823
    139 C48        -5.0510   -2.3480   -3.5410 c3        1 MOL      0.000363
    140 C49        -5.6130   -1.0380   -3.0850 c3        1 MOL      0.080158
    141 H60        -7.0970   -2.9860   -1.1980 h1        1 MOL      0.063314
    142 H61        -4.5230   -3.9780   -2.2200 hc        1 MOL      0.034725
    143 H62        -6.0920   -4.1470   -2.9240 hc        1 MOL      0.034725
    144 H63        -3.9780   -2.1980   -3.6300 hc        1 MOL      0.024191
    145 H64        -5.3870   -2.5840   -4.5480 hc        1 MOL      0.024191
    146 H65        -4.7330   -0.4030   -2.9790 h1        1 MOL     -0.017126
    147 H66        -6.3380   -0.6540   -3.7970 h1        1 MOL     -0.017126
    148 N13        -4.5610   -1.9380    0.5220 n         1 MOL     -0.205609
    149 C50        -3.7000   -2.2010    1.7110 c3        1 MOL     -0.021169
    150 C51        -4.2670   -1.5580    2.9970 c         1 MOL      0.491758
    151 O21        -4.1740   -2.1030    4.0530 o         1 MOL     -0.565624
    152 C52        -2.3000   -1.5890    1.4380 c3        1 MOL      0.030759
    153 C53        -1.5650   -2.1260    0.1240 c3        1 MOL      0.082850
    154 C54        -0.2410   -1.3970    0.0270 c         1 MOL      0.384669
    155 O22         0.7240   -1.7890   -0.7310 o         1 MOL     -0.604190
    156 O23        -0.0730   -0.3370    0.6100 o         1 MOL     -0.604190
    157 H67        -4.3660   -1.0970   -0.0110 hn        1 MOL      0.238169
    158 H68        -3.5910   -3.2540    1.9370 h1        1 MOL      0.086603
    159 H69        -1.6890   -1.8880    2.2860 hc        1 MOL     -0.007576
    160 H70        -2.4940   -0.5270    1.2700 hc        1 MOL     -0.007576
    161 H71        -2.1310   -1.9130   -0.7810 hc        1 MOL      0.017483
    162 H72        -1.3900   -3.1990    0.2440 hc        1 MOL      0.017483
    163 N14        -4.9670   -0.4390    2.7880 n         1 MOL     -0.002210
    164 C55        -6.0550    0.1580    3.5070 c3        1 MOL     -0.183362
    165 H73        -6.9510   -0.4500    3.3790 h1        1 MOL      0.066946
    166 H74        -5.8030    0.2150    4.5660 h1        1 MOL      0.066946
    167 H75        -6.2390    1.1610    3.1230 h1        1 MOL      0.066946
    168 H76        -4.9160   -0.1220    1.8310 hn        1 MOL     -0.018320
    169 Ca1         2.1100    0.3230   -1.2410 Ca        1 MOL      1.770744
    170 O24         2.0730    2.5910   -3.4700 oh        1 MOL     -0.779381
    171 H77         1.1120    2.5030   -3.4590 ho        1 MOL      0.349038
    172 H78         2.2410    3.3800   -2.9490 ho        1 MOL      0.349038
@<TRIPOS>BOND
     1    1    2 1   
     2    1    4 1   
     3    1    5 1   
     4    1    6 1   
     5    2    3 2   
     6    2    7 1   
     7    7    8 1   
     8    7   15 1   
     9    8    9 1   
    10    8   11 1   
    11    8   16 1   
    12    9   10 2   
    13    9   19 1   
    14   11   12 1   
    15   11   17 1   
    16   11   18 1   
    17   12   13 1   
    18   12   14 1   
    19   19   20 1   
    20   19   24 1   
    21   20   21 1   
    22   20   23 1   
    23   20   25 1   
    24   21   22 2   
    25   21   29 1   
    26   23   26 1   
    27   23   27 1   
    28   23   28 1   
    29   29   30 1   
    30   29   37 1   
    31   30   31 1   
    32   30   33 1   
    33   30   38 1   
    34   31   32 2   
    35   31   41 1   
    36   33   34 1   
    37   33   39 1   
    38   33   40 1   
    39   34   35 1   
    40   34   36 1   
    41   41   42 1   
    42   41   45 1   
    43   42   43 1   
    44   42   46 1   
    45   42   47 1   
    46   43   44 2   
    47   43   48 1   
    48   48   49 1   
    49   48   56 1   
    50   49   50 1   
    51   49   52 1   
    52   49   57 1   
    53   50   51 2   
    54   50   62 1   
    55   52   53 1   
    56   52   58 1   
    57   52   59 1   
    58   53   54 1   
    59   53   55 2   
    60   54   60 1   
    61   54   61 1   
    62   62   63 1   
    63   62   66 1   
    64   63   64 1   
    65   63   67 1   
    66   63   68 1   
    67   64   65 2   
    68   64   69 1   
    69   69   70 1   
    70   69   76 1   
    71   70   71 1   
    72   70   73 1   
    73   70   77 1   
    74   71   72 2   
    75   71   83 1   
    76   73   74 1   
    77   73   75 1   
    78   73   78 1   
    79   74   80 1   
    80   74   81 1   
    81   74   82 1   
    82   75   79 1   
    83   83   84 1   
    84   83   91 1   
    85   84   85 1   
    86   84   87 1   
    87   84   92 1   
    88   85   86 2   
    89   85  102 1   
    90   87   88 1   
    91   87   89 1   
    92   87   93 1   
    93   88   90 1   
    94   88   94 1   
    95   88   95 1   
    96   89   96 1   
    97   89   97 1   
    98   89   98 1   
    99   90   99 1   
   100   90  100 1   
   101   90  101 1   
   102  102  103 1   
   103  102  110 1   
   104  103  104 1   
   105  103  106 1   
   106  103  111 1   
   107  104  105 2   
   108  104  114 1   
   109  106  107 1   
   110  106  112 1   
   111  106  113 1   
   112  107  108 1   
   113  107  109 1   
   114  114  115 1   
   115  114  125 1   
   116  115  116 1   
   117  115  118 1   
   118  115  126 1   
   119  116  117 2   
   120  116  134 1   
   121  118  119 1   
   122  118  127 1   
   123  118  128 1   
   124  119  120 ar  
   125  119  121 ar  
   126  120  122 ar  
   127  120  129 1   
   128  121  123 ar  
   129  121  130 1   
   130  122  124 ar  
   131  122  131 1   
   132  123  124 ar  
   133  123  132 1   
   134  124  133 1   
   135  134  135 1   
   136  134  140 1   
   137  135  136 1   
   138  135  138 1   
   139  135  141 1   
   140  136  137 2   
   141  136  148 1   
   142  138  139 1   
   143  138  142 1   
   144  138  143 1   
   145  139  140 1   
   146  139  144 1   
   147  139  145 1   
   148  140  146 1   
   149  140  147 1   
   150  148  149 1   
   151  148  157 1   
   152  149  150 1   
   153  149  152 1   
   154  149  158 1   
   155  150  151 2   
   156  150  163 1   
   157  152  153 1   
   158  152  159 1   
   159  152  160 1   
   160  153  154 1   
   161  153  161 1   
   162  153  162 1   
   163  154  155 1   
   164  154  156 1   
   165  163  164 1   
   166  163  168 1   
   167  164  165 1   
   168  164  166 1   
   169  164  167 1   
   170  170  171 1   
   171  170  172 1   
@<TRIPOS>SUBSTRUCTURE
     1 MOL         1 TEMP              0 ****  ****    0 ROOT
