@<TRIPOS>MOLECULE
MOL
  189   185     1     0     0
SMALL
resp


@<TRIPOS>ATOM
      1 C1          0.6920    2.8030    6.0950 c3        1 MOL     -0.253177
      2 C2         -0.1920    2.4490    4.9020 c         1 MOL      0.734810
      3 O1         -0.7790    1.3620    4.8000 o         1 MOL     -0.616578
      4 H1          1.6830    2.3720    5.9530 hc        1 MOL      0.055298
      5 H2          0.7770    3.8870    6.1770 hc        1 MOL      0.055298
      6 H3          0.2490    2.4030    7.0070 hc        1 MOL      0.055298
      7 N1         -0.3440    3.4980    4.1250 n         1 MOL     -0.587404
      8 C3         -1.2010    3.4060    2.9130 c3        1 MOL      0.202628
      9 C4         -0.8280    4.6340    1.9960 c         1 MOL      0.470971
     10 O2         -0.4010    5.6660    2.4670 o         1 MOL     -0.568793
     11 C5         -2.6730    3.5180    3.3400 c3        1 MOL     -0.352347
     12 C6         -3.5840    3.2170    2.1450 c         1 MOL      0.664703
     13 O3         -4.8130    3.2110    2.3280 o         1 MOL     -0.662595
     14 O4         -3.1910    2.5550    1.1480 o         1 MOL     -0.662595
     15 H4          0.1090    4.3860    4.2770 hn        1 MOL      0.322711
     16 H5         -1.0730    2.4500    2.4220 h1        1 MOL      0.051552
     17 H6         -2.8510    4.5040    3.7650 hc        1 MOL      0.102925
     18 H7         -2.8840    2.7890    4.1190 hc        1 MOL      0.102925
     19 N2         -1.0090    4.4740    0.6440 n         1 MOL     -0.180483
     20 C7         -0.7830    5.4440   -0.4550 c3        1 MOL     -0.411882
     21 C8         -2.0280    5.4690   -1.3960 c         1 MOL      0.646099
     22 O5         -2.2330    6.4400   -2.1150 o         1 MOL     -0.578868
     23 C9          0.5840    5.0580   -1.2060 c3        1 MOL      0.486275
     24 C10         1.7180    5.6140   -0.3320 c3        1 MOL     -0.335514
     25 C11         0.5850    5.6840   -2.6460 c3        1 MOL     -0.383923
     26 C12         2.9600    5.2090   -1.0660 c3        1 MOL      0.074372
     27 H8         -1.2060    3.5330    0.3430 hn        1 MOL      0.346127
     28 H9         -0.8100    6.4220    0.0160 h1        1 MOL      0.149737
     29 H10         0.5730    3.9680   -1.2820 hc        1 MOL     -0.060237
     30 H11         1.7110    5.0210    0.5780 hc        1 MOL      0.094300
     31 H12         1.6730    6.6990   -0.3130 hc        1 MOL      0.094300
     32 H13         1.4270    5.3150   -3.2250 hc        1 MOL      0.084228
     33 H14        -0.2330    5.3380   -3.2820 hc        1 MOL      0.084228
     34 H15         0.5520    6.7710   -2.6210 hc        1 MOL      0.084228
     35 H16         3.3520    5.9360   -1.7690 hc        1 MOL     -0.007881
     36 H17         3.7680    4.9530   -0.3800 hc        1 MOL     -0.007881
     37 H18         2.8590    4.2890   -1.6490 hc        1 MOL     -0.007881
     38 N3         -2.8870    4.4080   -1.3820 n         1 MOL     -0.369838
     39 C13        -3.8380    4.0670   -2.4160 c3        1 MOL     -0.023154
     40 C14        -5.2400    3.6210   -2.0160 c         1 MOL      0.432292
     41 O6         -6.1860    3.6690   -2.8070 o         1 MOL     -0.593556
     42 C15        -3.1820    3.0670   -3.4410 c3        1 MOL     -0.159573
     43 C16        -2.9490    1.6960   -2.7450 c         1 MOL      0.725004
     44 O7         -3.5530    1.3990   -1.7080 o         1 MOL     -0.703570
     45 O8         -2.2850    0.8340   -3.3950 o         1 MOL     -0.703570
     46 H19        -2.7420    3.6990   -0.6770 hn        1 MOL      0.072535
     47 H20        -4.0690    4.9800   -2.9540 h1        1 MOL      0.095207
     48 H21        -2.2940    3.4570   -3.9360 hc        1 MOL      0.058280
     49 H22        -3.7820    2.7940   -4.3030 hc        1 MOL      0.058280
     50 N4         -5.3980    3.3750   -0.7730 n         1 MOL     -0.061644
     51 C17        -6.7070    2.9250   -0.2230 c3        1 MOL     -0.415949
     52 C18        -7.2010    1.4650   -0.4480 c         1 MOL      0.674206
     53 O9         -8.2780    1.1240    0.0740 o         1 MOL     -0.645955
     54 H23        -4.5920    3.4940   -0.1670 hn        1 MOL      0.168703
     55 H24        -7.5430    3.5010   -0.6300 h1        1 MOL      0.146869
     56 H25        -6.6360    3.0010    0.8580 h1        1 MOL      0.146869
     57 N5         -6.4780    0.6720   -1.2000 n         1 MOL     -0.353842
     58 C19        -7.0270   -0.5790   -1.7430 c3        1 MOL     -0.037626
     59 C20        -7.3490   -1.7020   -0.7670 c         1 MOL      0.461578
     60 O10        -8.0220   -2.6330   -1.1620 o         1 MOL     -0.541023
     61 C21        -6.0440   -1.1260   -2.8180 c3        1 MOL     -0.301732
     62 C22        -4.8850   -1.7660   -2.2030 c         1 MOL      0.822695
     63 O11        -4.4910   -1.4730   -1.0320 o         1 MOL     -0.721572
     64 O12        -4.2040   -2.6090   -2.8310 o         1 MOL     -0.721572
     65 H26        -5.5740    1.0040   -1.5110 hn        1 MOL      0.306571
     66 H27        -7.9100   -0.2320   -2.2710 h1        1 MOL      0.107279
     67 H28        -5.7120   -0.2580   -3.3880 hc        1 MOL      0.093142
     68 H29        -6.4280   -1.8620   -3.5080 hc        1 MOL      0.093142
     69 N6         -7.0460   -1.6800    0.5710 n         1 MOL     -0.172548
     70 C23        -7.2240   -2.7690    1.5900 c3        1 MOL     -0.315131
     71 C24        -6.1600   -3.8670    1.5280 c         1 MOL      0.624706
     72 O13        -6.3320   -4.9920    1.9260 o         1 MOL     -0.591647
     73 H30        -6.4920   -0.8880    0.8750 hn        1 MOL      0.218863
     74 H31        -8.1410   -3.2870    1.3450 h1        1 MOL      0.122948
     75 H32        -7.1950   -2.4430    2.6320 h1        1 MOL      0.122948
     76 N7         -4.9570   -3.5400    1.0130 n         1 MOL     -0.291826
     77 C25        -3.7370   -4.3950    0.9750 c3        1 MOL     -0.245693
     78 C26        -2.4640   -3.5370    1.2300 c         1 MOL      0.587903
     79 O14        -2.5380   -2.3200    1.1420 o         1 MOL     -0.585728
     80 C27        -3.6580   -5.0610   -0.4140 c3        1 MOL      0.145795
     81 C28        -4.9440   -5.6900   -1.0090 c3        1 MOL     -0.419354
     82 C29        -4.6240   -6.3960   -2.3100 c         1 MOL      0.595178
     83 N8         -4.2890   -5.6780   -3.3660 n         1 MOL     -0.630365
     84 O15        -4.4830   -7.5990   -2.4160 o         1 MOL     -0.594236
     85 H33        -4.8090   -2.5940    0.6980 hn        1 MOL      0.190225
     86 H34        -3.8920   -5.1510    1.7400 h1        1 MOL      0.104716
     87 H35        -2.8250   -5.7660   -0.3550 hc        1 MOL      0.032286
     88 H36        -3.1650   -4.3740   -1.1040 hc        1 MOL      0.032286
     89 H37        -5.6350   -4.8540   -1.0810 hc        1 MOL      0.147452
     90 H38        -5.4640   -6.4210   -0.3840 hc        1 MOL      0.147452
     91 H39        -4.4790   -4.6910   -3.3820 hn        1 MOL      0.301723
     92 H40        -4.2360   -6.1800   -4.2360 hn        1 MOL      0.301723
     93 N9         -1.3870   -4.1440    1.6670 n         1 MOL     -0.336778
     94 C30        -0.0490   -3.5920    1.7960 c3        1 MOL      0.067259
     95 C31         0.7910   -3.7010    0.5110 c         1 MOL      0.342399
     96 O16         1.2940   -4.8430    0.1840 o         1 MOL     -0.562244
     97 C32         0.5970   -4.0940    3.1470 c3        1 MOL      0.262160
     98 C33         1.9320   -3.3250    3.4130 c3        1 MOL     -0.243821
     99 C34        -0.4160   -3.8600    4.3430 c3        1 MOL     -0.243821
    100 H41        -1.4720   -5.1510    1.6420 hn        1 MOL      0.219132
    101 H42        -0.1370   -2.5130    1.9520 h1        1 MOL      0.066743
    102 H43         0.9670   -5.1040    2.9910 hc        1 MOL     -0.045445
    103 H44         1.7200   -2.2960    3.6910 hc        1 MOL      0.047318
    104 H45         2.4310   -3.8170    4.2510 hc        1 MOL      0.047318
    105 H46         2.5640   -3.2440    2.5360 hc        1 MOL      0.047318
    106 H47        -0.3530   -2.8190    4.6490 hc        1 MOL      0.047318
    107 H48        -1.4320   -4.1930    4.1150 hc        1 MOL      0.047318
    108 H49        -0.0770   -4.5030    5.1470 hc        1 MOL      0.047318
    109 N10         1.2040   -2.6000   -0.1160 n         1 MOL     -0.103367
    110 C35         2.1430   -2.5080   -1.1910 c3        1 MOL      0.004812
    111 C36         3.5670   -2.4170   -0.6170 c         1 MOL      0.114081
    112 O17         3.6320   -2.2420    0.5930 o         1 MOL     -0.126606
    113 C37         1.6150   -1.3480   -2.0650 c3        1 MOL      0.010676
    114 C38         2.3620   -1.1190   -3.3240 c         1 MOL      0.563452
    115 N11         1.7340   -1.5160   -4.3840 n         1 MOL     -0.692284
    116 O18         3.5070   -0.6810   -3.3640 o         1 MOL     -0.582554
    117 H50         0.7510   -1.7160    0.0780 hn        1 MOL      0.106805
    118 H51         2.0380   -3.4350   -1.7530 h1        1 MOL      0.050726
    119 H52         1.5390   -0.4680   -1.4290 hc        1 MOL      0.039172
    120 H53         0.5940   -1.5720   -2.3740 hc        1 MOL      0.039172
    121 H54         0.9330   -2.1170   -4.4090 hn        1 MOL      0.343826
    122 H55         2.2650   -1.2620   -5.2100 hn        1 MOL      0.343826
    123 N12         4.6130   -2.6060   -1.3920 n         1 MOL     -0.120149
    124 C39         5.9550   -2.5430   -0.8110 c3        1 MOL     -0.105935
    125 C40         6.2670   -1.0910   -0.3340 c         1 MOL      0.781562
    126 O19         6.9330   -0.7880    0.6290 o         1 MOL     -0.522429
    127 C41         6.9590   -3.1100   -1.8040 c3        1 MOL     -0.146557
    128 C42         8.3170   -2.8800   -1.3580 ca        1 MOL      0.131433
    129 C43         8.8310   -3.9270   -0.5940 ca        1 MOL     -0.269157
    130 C44         9.0200   -1.7590   -1.7240 ca        1 MOL     -0.269157
    131 C45        10.1120   -3.7370    0.0020 ca        1 MOL     -0.206565
    132 C46        10.3140   -1.5710   -1.2030 ca        1 MOL     -0.206565
    133 C47        10.9030   -2.5420   -0.3410 ca        1 MOL      0.306716
    134 O20        12.1680   -2.3510    0.1860 oh        1 MOL     -0.556287
    135 H56         4.5470   -2.8900   -2.3610 hn        1 MOL      0.201552
    136 H57         5.8410   -3.2380    0.0170 h1        1 MOL      0.074678
    137 H58         6.8370   -2.6580   -2.7870 hc        1 MOL      0.058826
    138 H59         6.8190   -4.1850   -1.8530 hc        1 MOL      0.058826
    139 H60         8.2160   -4.7840   -0.3740 ha        1 MOL      0.174044
    140 H61         8.5180   -1.0620   -2.3670 ha        1 MOL      0.174044
    141 H62        10.4580   -4.4540    0.7370 ha        1 MOL      0.143485
    142 H63        10.9130   -0.7120   -1.4670 ha        1 MOL      0.143485
    143 H64        12.6380   -1.6310   -0.2460 ho        1 MOL      0.402490
    144 N13         5.7130   -0.0630   -1.0540 n         1 MOL     -0.368352
    145 C48         5.8660    1.3760   -0.7100 c3        1 MOL     -0.120988
    146 C49         5.3110    1.7810    0.6450 c         1 MOL      0.316179
    147 O21         5.7450    2.7010    1.3860 o         1 MOL     -0.507866
    148 C50         5.2920    2.2300   -1.8850 c3        1 MOL      0.303415
    149 C51         6.1930    2.2690   -3.1380 c3        1 MOL     -0.349682
    150 C52         7.2290    3.4220   -2.8160 c         1 MOL      0.745952
    151 O22         7.3120    4.4110   -3.5690 o         1 MOL     -0.737017
    152 O23         8.0000    3.2910   -1.8660 o         1 MOL     -0.737017
    153 H65         5.2340   -0.3510   -1.9010 hn        1 MOL      0.180714
    154 H66         6.9160    1.6250   -0.5360 h1        1 MOL      0.136065
    155 H67         5.1000    3.2210   -1.4790 hc        1 MOL     -0.042180
    156 H68         4.3010    1.8240   -2.0880 hc        1 MOL     -0.042180
    157 H69         5.7020    2.4830   -4.0890 hc        1 MOL      0.037270
    158 H70         6.7040    1.3030   -3.1820 hc        1 MOL      0.037270
    159 N14         4.2710    1.1130    1.0110 n         1 MOL      0.015765
    160 C53         3.4930    1.3220    2.2330 c3        1 MOL     -0.163726
    161 C54         4.2260    0.4860    3.2820 c         1 MOL      0.524302
    162 O24         4.5330    0.8550    4.3910 o         1 MOL     -0.582624
    163 C55         2.0090    0.8830    2.1240 c3        1 MOL     -0.024899
    164 C56         1.3250    1.5830    0.9460 c3        1 MOL      0.236854
    165 C57        -0.0680    0.9890    0.5110 c         1 MOL      0.623838
    166 O25        -0.8580    1.6840   -0.0740 o         1 MOL     -0.685440
    167 O26        -0.3960   -0.1720    0.8590 o         1 MOL     -0.685440
    168 H71         3.8490    0.4520    0.3710 hn        1 MOL      0.134271
    169 H72         3.4540    2.3860    2.4780 h1        1 MOL      0.087640
    170 H73         1.4800    1.1300    3.0430 hc        1 MOL      0.006023
    171 H74         2.0270   -0.1930    1.9720 hc        1 MOL      0.006023
    172 H75         1.9800    1.5890    0.0690 hc        1 MOL     -0.093329
    173 H76         1.2180    2.6540    1.1490 hc        1 MOL     -0.093329
    174 N15         4.6400   -0.7370    2.9210 n         1 MOL      0.069754
    175 C58         5.4580   -1.6520    3.7370 c3        1 MOL     -0.227362
    176 H77         6.5110   -1.3920    3.6290 h1        1 MOL      0.079294
    177 H78         5.1670   -1.5630    4.7840 h1        1 MOL      0.079294
    178 H79         5.3010   -2.6770    3.4020 h1        1 MOL      0.079294
    179 H80         4.4520   -1.0550    1.9700 hn        1 MOL     -0.246784
    180 Ca1        -2.8670    0.1130    0.3500 Ca        1 MOL      1.742878
    181 O27        -2.4620   -0.0420    3.1420 oh        1 MOL     -0.843529
    182 H81        -1.8250    0.3020    3.7710 ho        1 MOL      0.400669
    183 H82        -3.0050   -0.6480    3.6400 ho        1 MOL      0.400669
    184 O28        -1.8780   -1.1870   -1.9390 oh        1 MOL     -0.843529
    185 H83        -2.5040   -1.8150   -2.3040 ho        1 MOL      0.400669
    186 H84        -1.8980   -0.4440   -2.5420 ho        1 MOL      0.400669
    187 O29        -5.1840    0.5150    1.7390 oh        1 MOL     -0.843529
    188 H85        -5.1550    1.4460    1.9730 ho        1 MOL      0.400669
    189 H86        -5.3860    0.0710    2.5590 ho        1 MOL      0.400669
@<TRIPOS>BOND
     1    1    2 1   
     2    1    4 1   
     3    1    5 1   
     4    1    6 1   
     5    2    3 2   
     6    2    7 1   
     7    7    8 1   
     8    7   15 1   
     9    8    9 1   
    10    8   11 1   
    11    8   16 1   
    12    9   10 2   
    13    9   19 1   
    14   11   12 1   
    15   11   17 1   
    16   11   18 1   
    17   12   13 1   
    18   12   14 1   
    19   19   20 1   
    20   19   27 1   
    21   20   21 1   
    22   20   23 1   
    23   20   28 1   
    24   21   22 2   
    25   21   38 1   
    26   23   24 1   
    27   23   25 1   
    28   23   29 1   
    29   24   26 1   
    30   24   30 1   
    31   24   31 1   
    32   25   32 1   
    33   25   33 1   
    34   25   34 1   
    35   26   35 1   
    36   26   36 1   
    37   26   37 1   
    38   38   39 1   
    39   38   46 1   
    40   39   40 1   
    41   39   42 1   
    42   39   47 1   
    43   40   41 2   
    44   40   50 1   
    45   42   43 1   
    46   42   48 1   
    47   42   49 1   
    48   43   44 1   
    49   43   45 1   
    50   50   51 1   
    51   50   54 1   
    52   51   52 1   
    53   51   55 1   
    54   51   56 1   
    55   52   53 2   
    56   52   57 1   
    57   57   58 1   
    58   57   65 1   
    59   58   59 1   
    60   58   61 1   
    61   58   66 1   
    62   59   60 2   
    63   59   69 1   
    64   61   62 1   
    65   61   67 1   
    66   61   68 1   
    67   62   63 1   
    68   62   64 1   
    69   69   70 1   
    70   69   73 1   
    71   70   71 1   
    72   70   74 1   
    73   70   75 1   
    74   71   72 2   
    75   71   76 1   
    76   76   77 1   
    77   76   85 1   
    78   77   78 1   
    79   77   80 1   
    80   77   86 1   
    81   78   79 2   
    82   78   93 1   
    83   80   81 1   
    84   80   87 1   
    85   80   88 1   
    86   81   82 1   
    87   81   89 1   
    88   81   90 1   
    89   82   83 1   
    90   82   84 2   
    91   83   91 1   
    92   83   92 1   
    93   93   94 1   
    94   93  100 1   
    95   94   95 1   
    96   94   97 1   
    97   94  101 1   
    98   95   96 2   
    99   95  109 1   
   100   97   98 1   
   101   97   99 1   
   102   97  102 1   
   103   98  103 1   
   104   98  104 1   
   105   98  105 1   
   106   99  106 1   
   107   99  107 1   
   108   99  108 1   
   109  109  110 1   
   110  109  117 1   
   111  110  111 1   
   112  110  113 1   
   113  110  118 1   
   114  111  112 2   
   115  111  123 1   
   116  113  114 1   
   117  113  119 1   
   118  113  120 1   
   119  114  115 1   
   120  114  116 2   
   121  115  121 1   
   122  115  122 1   
   123  123  124 1   
   124  123  135 1   
   125  124  125 1   
   126  124  127 1   
   127  124  136 1   
   128  125  126 2   
   129  125  144 1   
   130  127  128 1   
   131  127  137 1   
   132  127  138 1   
   133  128  129 ar  
   134  128  130 ar  
   135  129  131 ar  
   136  129  139 1   
   137  130  132 ar  
   138  130  140 1   
   139  131  133 ar  
   140  131  141 1   
   141  132  133 ar  
   142  132  142 1   
   143  133  134 1   
   144  134  143 1   
   145  144  145 1   
   146  144  153 1   
   147  145  146 1   
   148  145  148 1   
   149  145  154 1   
   150  146  147 2   
   151  146  159 1   
   152  148  149 1   
   153  148  155 1   
   154  148  156 1   
   155  149  150 1   
   156  149  157 1   
   157  149  158 1   
   158  150  151 1   
   159  150  152 1   
   160  159  160 1   
   161  159  168 1   
   162  160  161 1   
   163  160  163 1   
   164  160  169 1   
   165  161  162 2   
   166  161  174 1   
   167  163  164 1   
   168  163  170 1   
   169  163  171 1   
   170  164  165 1   
   171  164  172 1   
   172  164  173 1   
   173  165  166 1   
   174  165  167 1   
   175  174  175 1   
   176  174  179 1   
   177  175  176 1   
   178  175  177 1   
   179  175  178 1   
   180  181  182 1   
   181  181  183 1   
   182  184  185 1   
   183  184  186 1   
   184  187  188 1   
   185  187  189 1   
@<TRIPOS>SUBSTRUCTURE
     1 MOL         1 TEMP              0 ****  ****    0 ROOT
