@<TRIPOS>MOLECULE
MOL
  189   185     1     0     0
SMALL
resp


@<TRIPOS>ATOM
      1 C1          1.4180   -2.7300    6.3050 c3        1 MOL     -0.505456
      2 C2          1.6450   -2.4320    4.8350 c         1 MOL      0.730025
      3 O1          1.2340   -1.4120    4.3230 o         1 MOL     -0.581315
      4 H1          1.9560   -3.6380    6.5790 hc        1 MOL      0.125849
      5 H2          1.7820   -1.8980    6.9060 hc        1 MOL      0.125849
      6 H3          0.3530   -2.8720    6.4870 hc        1 MOL      0.125849
      7 N1          2.3010   -3.3030    4.1280 n         1 MOL     -0.567484
      8 C3          2.5840   -3.1450    2.7590 c3        1 MOL      0.073754
      9 C4          2.5140   -4.5720    2.0590 c         1 MOL      0.461251
     10 O2          3.1850   -5.5620    2.4170 o         1 MOL     -0.548333
     11 C5          4.0240   -2.7460    2.6690 c3        1 MOL     -0.173909
     12 C6          4.4730   -2.4040    1.2620 c         1 MOL      0.755924
     13 O3          3.5940   -2.0500    0.4090 o         1 MOL     -0.701048
     14 O4          5.7190   -2.4290    0.9640 o         1 MOL     -0.701048
     15 H4          2.6180   -4.1060    4.6590 hn        1 MOL      0.310720
     16 H5          1.8740   -2.4700    2.2750 h1        1 MOL      0.141492
     17 H6          4.7660   -3.4750    3.0030 hc        1 MOL      0.032363
     18 H7          4.1710   -1.8260    3.2370 hc        1 MOL      0.032363
     19 N2          1.6690   -4.5320    1.0060 n         1 MOL     -0.219656
     20 C7          1.6670   -5.5370   -0.0260 c3        1 MOL     -0.071218
     21 C8          2.3680   -5.2750   -1.3810 c         1 MOL      0.492259
     22 O5          2.1460   -6.0630   -2.3000 o         1 MOL     -0.574793
     23 C9          0.2570   -6.1510   -0.0950 c3        1 MOL      0.261935
     24 C10        -0.6630   -5.3720   -1.1140 c3        1 MOL     -0.153600
     25 C11        -0.5170   -6.5950    1.2040 c3        1 MOL     -0.115338
     26 C12        -2.1210   -5.7290   -1.2190 c3        1 MOL     -0.427054
     27 H8          1.3100   -3.6290    0.7260 hn        1 MOL      0.082241
     28 H9          2.2480   -6.3670    0.3720 h1        1 MOL      0.071868
     29 H10         0.4340   -7.1110   -0.5690 hc        1 MOL     -0.055054
     30 H11        -0.3120   -5.3080   -2.1440 hc        1 MOL      0.116277
     31 H12        -0.7390   -4.3470   -0.7660 hc        1 MOL      0.116277
     32 H13         0.0970   -7.2970    1.7690 hc        1 MOL      0.006603
     33 H14        -0.7630   -5.7750    1.8720 hc        1 MOL      0.006603
     34 H15        -1.4260   -7.1000    0.9050 hc        1 MOL      0.006603
     35 H16        -2.2070   -6.8100   -1.1810 hc        1 MOL      0.113154
     36 H17        -2.7480   -5.3260   -0.4160 hc        1 MOL      0.113154
     37 H18        -2.4750   -5.2130   -2.1080 hc        1 MOL      0.113154
     38 N3          3.1410   -4.1930   -1.5440 n         1 MOL     -0.393784
     39 C13         3.8840   -4.0040   -2.8200 c3        1 MOL      0.078325
     40 C14         5.3080   -3.3400   -2.7570 c         1 MOL      0.276322
     41 O6          6.1350   -3.6570   -3.6280 o         1 MOL     -0.572679
     42 C15         3.0090   -3.1590   -3.8190 c3        1 MOL     -0.227582
     43 C16         2.4590   -1.8180   -3.3230 c         1 MOL      0.714873
     44 O7          3.0400   -1.2000   -2.4340 o         1 MOL     -0.665159
     45 O8          1.5080   -1.3460   -3.9430 o         1 MOL     -0.665159
     46 H19         3.2250   -3.4900   -0.8200 hn        1 MOL      0.310049
     47 H20         3.9910   -4.9680   -3.2940 h1        1 MOL      0.090617
     48 H21         2.1620   -3.7730   -4.1430 hc        1 MOL      0.066161
     49 H22         3.5380   -2.9360   -4.7410 hc        1 MOL      0.066161
     50 N4          5.5700   -2.4290   -1.8370 n         1 MOL      0.057775
     51 C17         6.9120   -1.7170   -1.6540 c3        1 MOL     -0.134275
     52 C18         7.0580   -0.3190   -2.3050 c         1 MOL      0.448083
     53 O9          8.2030    0.1860   -2.3510 o         1 MOL     -0.601103
     54 H23         4.7600   -2.3130   -1.2460 hn        1 MOL      0.005503
     55 H24         7.6950   -2.4030   -1.9670 h1        1 MOL      0.096219
     56 H25         7.1350   -1.6100   -0.5880 h1        1 MOL      0.096219
     57 N5          5.9850    0.3240   -2.7950 n         1 MOL     -0.160030
     58 C19         5.9200    1.6440   -3.3600 c3        1 MOL     -0.209314
     59 C20         6.1670    2.8140   -2.3380 c         1 MOL      0.495853
     60 O10         6.3220    3.9620   -2.6930 o         1 MOL     -0.564637
     61 C21         4.5910    1.9480   -4.1090 c3        1 MOL      0.010909
     62 C22         3.3370    2.0440   -3.2550 c         1 MOL      0.647631
     63 O11         3.4120    1.7660   -2.0190 o         1 MOL     -0.692818
     64 O12         2.3180    2.4230   -3.8550 o         1 MOL     -0.692818
     65 H26         5.0990   -0.1390   -2.6530 hn        1 MOL      0.173826
     66 H27         6.6850    1.7480   -4.1320 h1        1 MOL      0.105380
     67 H28         4.4390    1.1390   -4.8200 hc        1 MOL      0.020966
     68 H29         4.7060    2.7840   -4.8030 hc        1 MOL      0.020966
     69 N6          6.1750    2.4940   -0.9930 n         1 MOL     -0.182981
     70 C23         6.6170    3.4710    0.0450 c3        1 MOL     -0.291628
     71 C24         5.5430    4.0200    1.0020 c         1 MOL      0.530791
     72 O13         5.9490    4.6230    1.9880 o         1 MOL     -0.579126
     73 H30         5.9790    1.5460   -0.7170 hn        1 MOL      0.218910
     74 H31         7.1330    4.2480   -0.5260 h1        1 MOL      0.123801
     75 H32         7.4050    2.9270    0.5600 h1        1 MOL      0.123801
     76 N7          4.2760    3.6330    0.8270 n         1 MOL     -0.188846
     77 C25         3.1210    4.1970    1.6190 c3        1 MOL     -0.229523
     78 C26         1.9480    3.1150    1.7330 c         1 MOL      0.812105
     79 O14         1.7120    2.2360    0.9820 o         1 MOL     -0.670227
     80 C27         2.5960    5.5370    1.0500 c3        1 MOL      0.220837
     81 C28         3.4220    6.7550    1.3050 c3        1 MOL     -0.474916
     82 C29         2.6960    7.9670    0.7760 c         1 MOL      0.786200
     83 N8          2.4320    8.0030   -0.4760 n         1 MOL     -0.853646
     84 O15         2.3660    8.8860    1.4620 o         1 MOL     -0.619808
     85 H33         4.0630    3.1330   -0.0210 hn        1 MOL      0.187646
     86 H34         3.4070    4.4410    2.6390 h1        1 MOL      0.091368
     87 H35         1.6030    5.7640    1.4520 hc        1 MOL      0.006092
     88 H36         2.3880    5.3690   -0.0060 hc        1 MOL      0.006092
     89 H37         4.3290    6.7150    0.7120 hc        1 MOL      0.127992
     90 H38         3.7800    6.7620    2.3340 hc        1 MOL      0.127992
     91 H39         2.9980    7.3640   -1.0210 hn        1 MOL      0.386421
     92 H40         1.7880    8.6960   -0.8280 hn        1 MOL      0.386421
     93 N9          1.2420    3.1730    2.8420 n         1 MOL     -0.611950
     94 C30        -0.0320    2.4440    3.1310 c3        1 MOL      0.068334
     95 C31        -1.1370    2.9710    2.2250 c         1 MOL      0.429022
     96 O16        -1.2100    4.2230    1.9900 o         1 MOL     -0.591920
     97 C32        -0.4750    2.6000    4.6010 c3        1 MOL      0.148028
     98 C33        -1.6980    1.8020    4.9780 c3        1 MOL     -0.183434
     99 C34         0.6160    2.0490    5.5250 c3        1 MOL     -0.183434
    100 H41         1.4710    3.9840    3.3940 hn        1 MOL      0.296914
    101 H42         0.0830    1.3690    2.9590 h1        1 MOL      0.057088
    102 H43        -0.5610    3.6320    4.9360 hc        1 MOL      0.004897
    103 H44        -2.4970    2.1470    4.3400 hc        1 MOL      0.038190
    104 H45        -1.5010    0.7240    5.0090 hc        1 MOL      0.038190
    105 H46        -2.0390    2.1040    5.9680 hc        1 MOL      0.038190
    106 H47         1.5730    2.5680    5.4710 hc        1 MOL      0.038190
    107 H48         0.2540    2.2170    6.5500 hc        1 MOL      0.038190
    108 H49         0.7860    0.9950    5.3050 hc        1 MOL      0.038190
    109 N10        -2.1050    2.1470    1.7810 n         1 MOL     -0.034364
    110 C35        -3.1600    2.4800    0.7840 c3        1 MOL      0.117077
    111 C36        -4.4550    1.8300    1.2350 c         1 MOL      0.270340
    112 O17        -4.4090    0.9250    2.0500 o         1 MOL     -0.409597
    113 C37        -2.5970    1.9910   -0.5720 c3        1 MOL     -0.511214
    114 C38        -3.4860    2.3170   -1.7020 c         1 MOL      0.675794
    115 N11        -3.4950    3.5440   -2.0860 n         1 MOL     -0.741282
    116 O18        -4.3030    1.5760   -2.2350 o         1 MOL     -0.434156
    117 H50        -2.0620    1.1970    2.1140 hn        1 MOL      0.102806
    118 H51        -3.3010    3.5600    0.8690 h1        1 MOL      0.031147
    119 H52        -2.3460    0.9320   -0.5990 hc        1 MOL      0.194435
    120 H53        -1.5780    2.3880   -0.6580 hc        1 MOL      0.194435
    121 H54        -3.1920    4.2140   -1.4000 hn        1 MOL      0.343607
    122 H55        -4.2980    3.7380   -2.6730 hn        1 MOL      0.343607
    123 N12        -5.6080    2.3360    0.7270 n         1 MOL     -0.209465
    124 C39        -6.8580    1.6470    1.0130 c3        1 MOL      0.005290
    125 C40        -6.8310    0.1380    0.6910 c         1 MOL      0.473486
    126 O19        -7.3600   -0.7010    1.4520 o         1 MOL     -0.559325
    127 C41        -7.9380    2.4170    0.2050 c3        1 MOL     -0.280151
    128 C42        -7.7850    2.3660   -1.3480 ca        1 MOL      0.129777
    129 C43        -8.3650    1.3400   -2.0660 ca        1 MOL     -0.168461
    130 C44        -7.2870    3.5400   -1.9390 ca        1 MOL     -0.168461
    131 C45        -8.3930    1.4840   -3.4680 ca        1 MOL     -0.302986
    132 C46        -7.2960    3.6920   -3.3110 ca        1 MOL     -0.302986
    133 C47        -7.7850    2.6370   -4.0910 ca        1 MOL      0.372992
    134 O20        -7.6530    2.8030   -5.4440 oh        1 MOL     -0.505642
    135 H56        -5.6440    3.0060   -0.0290 hn        1 MOL      0.147804
    136 H57        -7.0280    1.7490    2.0840 h1        1 MOL      0.091698
    137 H58        -8.1440    3.4390    0.5100 hc        1 MOL      0.087748
    138 H59        -8.8440    1.8310    0.3570 hc        1 MOL      0.087748
    139 H60        -8.7650    0.4650   -1.5650 ha        1 MOL      0.141804
    140 H61        -6.8660    4.2830   -1.2860 ha        1 MOL      0.141804
    141 H62        -8.8540    0.7470   -4.1130 ha        1 MOL      0.157851
    142 H63        -6.8470    4.5500   -3.7840 ha        1 MOL      0.157851
    143 H64        -7.9290    1.9860   -5.8690 ho        1 MOL      0.397286
    144 N13        -6.0200   -0.3340   -0.3280 n         1 MOL     -0.044031
    145 C48        -5.9000   -1.8130   -0.6270 c3        1 MOL     -0.408852
    146 C49        -4.9120   -2.5080    0.3440 c         1 MOL      0.455617
    147 O21        -4.5680   -3.7250    0.1920 o         1 MOL     -0.566326
    148 C50        -5.3720   -2.1370   -2.0400 c3        1 MOL      0.593252
    149 C51        -6.3880   -1.8550   -3.1140 c3        1 MOL     -0.617104
    150 C52        -5.6930   -1.8470   -4.5300 c         1 MOL      0.831048
    151 O22        -4.4560   -1.7520   -4.6360 o         1 MOL     -0.748212
    152 O23        -6.3840   -1.8910   -5.5730 o         1 MOL     -0.748212
    153 H65        -5.6320    0.2430   -1.0560 hn        1 MOL      0.142166
    154 H66        -6.8310   -2.3520   -0.5020 h1        1 MOL      0.153400
    155 H67        -5.1770   -3.1990   -2.1830 hc        1 MOL     -0.061079
    156 H68        -4.4480   -1.5750   -2.1930 hc        1 MOL     -0.061079
    157 H69        -6.8530   -0.8830   -2.9340 hc        1 MOL      0.093232
    158 H70        -7.1610   -2.6290   -3.1070 hc        1 MOL      0.093232
    159 N14        -4.3830   -1.8420    1.3630 n         1 MOL     -0.201347
    160 C53        -3.5300   -2.2700    2.4620 c3        1 MOL     -0.164093
    161 C54        -4.1590   -2.1120    3.8240 c         1 MOL      0.411958
    162 O24        -3.6290   -2.6010    4.8430 o         1 MOL     -0.556974
    163 C55        -2.0790   -1.6370    2.3150 c3        1 MOL      0.073217
    164 C56        -1.3860   -2.2180    1.0350 c3        1 MOL     -0.135205
    165 C57        -0.1130   -1.4200    0.6700 c         1 MOL      0.581964
    166 O25         0.0640   -0.2050    1.0530 o         1 MOL     -0.658509
    167 O26         0.7450   -1.9170   -0.0970 o         1 MOL     -0.658509
    168 H71        -4.5690   -0.8540    1.4150 hn        1 MOL      0.160960
    169 H72        -3.4340   -3.3340    2.2860 h1        1 MOL      0.144424
    170 H73        -1.4460   -1.9470    3.1380 hc        1 MOL      0.046238
    171 H74        -2.1340   -0.5510    2.2840 hc        1 MOL      0.046238
    172 H75        -2.1630   -2.0520    0.2790 hc        1 MOL      0.058029
    173 H76        -1.0490   -3.2430    1.1660 hc        1 MOL      0.058029
    174 N15        -5.3480   -1.5720    3.9690 n         1 MOL     -0.134951
    175 C58        -5.9650   -1.2990    5.2380 c3        1 MOL     -0.134214
    176 H77        -5.4490   -1.8580    6.0200 h1        1 MOL      0.062622
    177 H78        -5.8990   -0.2330    5.4520 h1        1 MOL      0.062622
    178 H79        -7.0120   -1.6000    5.2070 h1        1 MOL      0.062622
    179 H80        -5.7120   -1.1850    3.1020 hn        1 MOL      0.166620
    180 Ca1         2.3740    0.0790   -0.2710 Ca        1 MOL      1.800640
    181 O27         5.0090    0.3780    0.3910 oh        1 MOL     -0.970365
    182 H81         4.8310   -0.5570    0.5250 ho        1 MOL      0.457029
    183 H82         5.6900    0.5870    1.0390 ho        1 MOL      0.457029
    184 O28         0.6880    0.6890   -2.1860 oh        1 MOL     -0.970365
    185 O29         2.8560    0.1920    2.4870 oh        1 MOL     -0.970365
    186 H83        -0.1470    0.9970   -2.5370 ho        1 MOL      0.457029
    187 H84         1.9780    0.0930    2.8640 ho        1 MOL      0.457029
    188 H85         1.2200    0.5150   -2.9630 ho        1 MOL      0.457029
    189 H86         3.4370    0.2130    3.2400 ho        1 MOL      0.457029
@<TRIPOS>BOND
     1    1    2 1   
     2    1    4 1   
     3    1    5 1   
     4    1    6 1   
     5    2    3 2   
     6    2    7 1   
     7    7    8 1   
     8    7   15 1   
     9    8    9 1   
    10    8   11 1   
    11    8   16 1   
    12    9   10 2   
    13    9   19 1   
    14   11   12 1   
    15   11   17 1   
    16   11   18 1   
    17   12   13 1   
    18   12   14 1   
    19   19   20 1   
    20   19   27 1   
    21   20   21 1   
    22   20   23 1   
    23   20   28 1   
    24   21   22 2   
    25   21   38 1   
    26   23   24 1   
    27   23   25 1   
    28   23   29 1   
    29   24   26 1   
    30   24   30 1   
    31   24   31 1   
    32   25   32 1   
    33   25   33 1   
    34   25   34 1   
    35   26   35 1   
    36   26   36 1   
    37   26   37 1   
    38   38   39 1   
    39   38   46 1   
    40   39   40 1   
    41   39   42 1   
    42   39   47 1   
    43   40   41 2   
    44   40   50 1   
    45   42   43 1   
    46   42   48 1   
    47   42   49 1   
    48   43   44 1   
    49   43   45 1   
    50   50   51 1   
    51   50   54 1   
    52   51   52 1   
    53   51   55 1   
    54   51   56 1   
    55   52   53 2   
    56   52   57 1   
    57   57   58 1   
    58   57   65 1   
    59   58   59 1   
    60   58   61 1   
    61   58   66 1   
    62   59   60 2   
    63   59   69 1   
    64   61   62 1   
    65   61   67 1   
    66   61   68 1   
    67   62   63 1   
    68   62   64 1   
    69   69   70 1   
    70   69   73 1   
    71   70   71 1   
    72   70   74 1   
    73   70   75 1   
    74   71   72 2   
    75   71   76 1   
    76   76   77 1   
    77   76   85 1   
    78   77   78 1   
    79   77   80 1   
    80   77   86 1   
    81   78   79 2   
    82   78   93 1   
    83   80   81 1   
    84   80   87 1   
    85   80   88 1   
    86   81   82 1   
    87   81   89 1   
    88   81   90 1   
    89   82   83 1   
    90   82   84 2   
    91   83   91 1   
    92   83   92 1   
    93   93   94 1   
    94   93  100 1   
    95   94   95 1   
    96   94   97 1   
    97   94  101 1   
    98   95   96 2   
    99   95  109 1   
   100   97   98 1   
   101   97   99 1   
   102   97  102 1   
   103   98  103 1   
   104   98  104 1   
   105   98  105 1   
   106   99  106 1   
   107   99  107 1   
   108   99  108 1   
   109  109  110 1   
   110  109  117 1   
   111  110  111 1   
   112  110  113 1   
   113  110  118 1   
   114  111  112 2   
   115  111  123 1   
   116  113  114 1   
   117  113  119 1   
   118  113  120 1   
   119  114  115 1   
   120  114  116 2   
   121  115  121 1   
   122  115  122 1   
   123  123  124 1   
   124  123  135 1   
   125  124  125 1   
   126  124  127 1   
   127  124  136 1   
   128  125  126 2   
   129  125  144 1   
   130  127  128 1   
   131  127  137 1   
   132  127  138 1   
   133  128  129 ar  
   134  128  130 ar  
   135  129  131 ar  
   136  129  139 1   
   137  130  132 ar  
   138  130  140 1   
   139  131  133 ar  
   140  131  141 1   
   141  132  133 ar  
   142  132  142 1   
   143  133  134 1   
   144  134  143 1   
   145  144  145 1   
   146  144  153 1   
   147  145  146 1   
   148  145  148 1   
   149  145  154 1   
   150  146  147 2   
   151  146  159 1   
   152  148  149 1   
   153  148  155 1   
   154  148  156 1   
   155  149  150 1   
   156  149  157 1   
   157  149  158 1   
   158  150  151 1   
   159  150  152 1   
   160  159  160 1   
   161  159  168 1   
   162  160  161 1   
   163  160  163 1   
   164  160  169 1   
   165  161  162 2   
   166  161  174 1   
   167  163  164 1   
   168  163  170 1   
   169  163  171 1   
   170  164  165 1   
   171  164  172 1   
   172  164  173 1   
   173  165  166 1   
   174  165  167 1   
   175  174  175 1   
   176  174  179 1   
   177  175  176 1   
   178  175  177 1   
   179  175  178 1   
   180  181  182 1   
   181  181  183 1   
   182  184  186 1   
   183  184  188 1   
   184  185  187 1   
   185  185  189 1   
@<TRIPOS>SUBSTRUCTURE
     1 MOL         1 TEMP              0 ****  ****    0 ROOT
