@<TRIPOS>MOLECULE
MOL
  176   174     1     0     0
SMALL
resp


@<TRIPOS>ATOM
      1 C1          0.4640    4.9900    5.0930 c3        1 MOL     -0.310292
      2 C2          0.3080    4.3900    3.6990 c         1 MOL      0.738248
      3 O1          1.1220    4.4790    2.8210 o         1 MOL     -0.640257
      4 H1         -0.1680    5.8740    5.1800 hc        1 MOL      0.075198
      5 H2          0.1640    4.2550    5.8410 hc        1 MOL      0.075198
      6 H3          1.5050    5.2700    5.2550 hc        1 MOL      0.075198
      7 N1         -0.8540    3.9290    3.3940 n         1 MOL     -0.498905
      8 C3         -1.1500    3.3820    2.0420 c3        1 MOL      0.063159
      9 C4         -1.9450    4.4100    1.2120 c         1 MOL      0.345314
     10 O2         -2.9880    4.9060    1.6620 o         1 MOL     -0.481423
     11 C5         -2.0720    2.0880    2.2640 c3        1 MOL     -0.436795
     12 C6         -2.5510    1.4610    0.9890 c         1 MOL      0.763642
     13 O3         -2.2600    1.9380   -0.1720 o         1 MOL     -0.755741
     14 O4         -3.3500    0.5160    1.0230 o         1 MOL     -0.755741
     15 H4         -1.6080    3.9400    4.0770 hn        1 MOL      0.299233
     16 H5         -0.2500    3.1040    1.4960 h1        1 MOL      0.083289
     17 H6         -2.9490    2.5020    2.7630 hc        1 MOL      0.162317
     18 H7         -1.5360    1.3670    2.8870 hc        1 MOL      0.162317
     19 N2         -1.2560    4.8680    0.1620 n         1 MOL     -0.235397
     20 C7         -1.6190    6.0730   -0.5470 c3        1 MOL      0.010768
     21 C8         -2.6660    5.9130   -1.6050 c         1 MOL      0.368639
     22 O5         -3.1890    6.9370   -2.1120 o         1 MOL     -0.533645
     23 C9         -0.3790    6.8100   -1.1210 c3        1 MOL     -0.019831
     24 C10         0.7550    7.0610   -0.1210 c3        1 MOL     -0.051609
     25 C11         0.2800    8.1950    0.9450 c3        1 MOL     -0.284080
     26 C12         1.4430    8.4700    1.8920 c3        1 MOL      0.113074
     27 N3          1.0660    9.3260    3.0850 n4        1 MOL     -0.406826
     28 H8         -0.4350    4.3360   -0.1040 hn        1 MOL      0.278166
     29 H9         -1.9910    6.8140    0.1510 h1        1 MOL      0.079439
     30 H10        -0.6790    7.7610   -1.5580 hc        1 MOL      0.032547
     31 H11        -0.0620    6.1510   -1.9330 hc        1 MOL      0.032547
     32 H12         1.6830    7.3300   -0.6270 hc        1 MOL      0.074505
     33 H13         1.0480    6.1190    0.3580 hc        1 MOL      0.074505
     34 H14        -0.5280    7.8000    1.5440 hc        1 MOL      0.114696
     35 H15        -0.1550    9.1120    0.5310 hc        1 MOL      0.114696
     36 H16         2.1910    9.0200    1.3210 hx        1 MOL      0.078230
     37 H17         1.9210    7.5010    2.0520 hx        1 MOL      0.078230
     38 H18         0.4700    8.8780    3.7570 hn        1 MOL      0.337315
     39 H19         1.8920    9.6580    3.5450 hn        1 MOL      0.337315
     40 H20         0.4970   10.1080    2.7740 hn        1 MOL      0.337315
     41 N4         -3.0000    4.6690   -1.9320 n         1 MOL     -0.149546
     42 C13        -4.0840    4.1370   -2.7620 c3        1 MOL     -0.010549
     43 C14        -5.1800    3.4910   -1.9140 c         1 MOL      0.435122
     44 O6         -6.2590    3.3280   -2.4690 o         1 MOL     -0.535953
     45 C15        -3.6430    3.1440   -3.8310 c3        1 MOL      0.021355
     46 C16        -2.9440    1.8710   -3.3550 c         1 MOL      0.620153
     47 O7         -3.6080    1.1110   -2.6430 o         1 MOL     -0.758609
     48 O8         -1.6930    1.8380   -3.2460 o         1 MOL     -0.758609
     49 H21        -2.5740    3.8970   -1.4330 hn        1 MOL      0.205820
     50 H22        -4.5380    4.9460   -3.3400 h1        1 MOL      0.087815
     51 H23        -2.8550    3.6510   -4.3860 hc        1 MOL      0.011234
     52 H24        -4.3920    2.9150   -4.5870 hc        1 MOL      0.011234
     53 N5         -4.9670    3.1340   -0.6340 n         1 MOL     -0.050010
     54 C17        -5.9300    2.6170    0.3690 c3        1 MOL     -0.404220
     55 C18        -6.4410    1.1920    0.1580 c         1 MOL      0.669062
     56 O9         -7.3120    0.7830    0.8900 o         1 MOL     -0.592373
     57 H25        -4.0030    3.1100   -0.3290 hn        1 MOL      0.004171
     58 H26        -6.8720    3.1740    0.4440 h1        1 MOL      0.178057
     59 H27        -5.3870    2.5940    1.3140 h1        1 MOL      0.178057
     60 N6         -5.8720    0.3770   -0.7960 n         1 MOL     -0.296821
     61 C19        -6.2550   -0.9750   -1.0630 c3        1 MOL     -0.211997
     62 C20        -5.9120   -2.0540   -0.0050 c         1 MOL      0.331216
     63 O10        -6.0220   -3.2400   -0.2930 o         1 MOL     -0.452671
     64 C21        -5.8630   -1.4950   -2.4650 c3        1 MOL      0.005912
     65 C22        -4.4440   -1.8040   -2.7690 c         1 MOL      0.580320
     66 N7         -4.1930   -1.9700   -4.0060 n         1 MOL     -0.652144
     67 O11        -3.5240   -1.7900   -1.9640 o         1 MOL     -0.518537
     68 H28        -5.0430    0.7150   -1.2700 hn        1 MOL      0.240747
     69 H29        -7.3460   -0.9610   -1.0890 h1        1 MOL      0.167095
     70 H30        -6.3360   -0.8050   -3.1580 hc        1 MOL      0.041465
     71 H31        -6.4350   -2.3430   -2.8400 hc        1 MOL      0.041465
     72 H32        -4.9930   -1.7980   -4.5920 hn        1 MOL      0.330234
     73 H33        -3.2090   -1.9610   -4.2520 hn        1 MOL      0.330234
     74 N8         -5.4440   -1.7410    1.2040 n         1 MOL     -0.159762
     75 C23        -5.4860   -2.5710    2.4570 c3        1 MOL     -0.175276
     76 C24        -4.1540   -3.3930    2.5790 c         1 MOL      0.483275
     77 O12        -3.9900   -4.1540    3.4960 o         1 MOL     -0.551459
     78 H34        -5.1230   -0.7830    1.2430 hn        1 MOL      0.285947
     79 H35        -6.3860   -3.1760    2.5450 h1        1 MOL      0.122291
     80 H36        -5.6790   -1.7690    3.1670 h1        1 MOL      0.122291
     81 N9         -3.1770   -3.3520    1.6430 n         1 MOL     -0.265259
     82 C25        -1.8900   -3.9520    1.6340 c3        1 MOL      0.576899
     83 C26        -0.8540   -2.9680    1.0860 c         1 MOL      0.044251
     84 O13        -1.1350   -2.2010    0.2030 o         1 MOL     -0.463372
     85 C27        -1.9370   -5.2510    0.6840 c3        1 MOL     -0.349780
     86 C28        -3.0100   -6.3370    0.8070 ca        1 MOL      0.090154
     87 C29        -4.1750   -6.3470    0.0050 ca        1 MOL     -0.119199
     88 C30        -2.7450   -7.4370    1.6600 ca        1 MOL     -0.119199
     89 C31        -5.1000   -7.4600    0.1550 ca        1 MOL     -0.314622
     90 C32        -3.5810   -8.5500    1.7000 ca        1 MOL     -0.314622
     91 C33        -4.8290   -8.5730    0.9750 ca        1 MOL      0.402900
     92 O14        -5.7280   -9.5830    1.1330 oh        1 MOL     -0.516149
     93 H37        -3.3360   -2.6920    0.9000 hn        1 MOL      0.099331
     94 H38        -1.6090   -4.1550    2.6600 h1        1 MOL     -0.056660
     95 H39        -0.9890   -5.7450    0.9270 hc        1 MOL      0.091561
     96 H40        -2.0780   -4.9450   -0.3470 hc        1 MOL      0.091561
     97 H41        -4.4160   -5.4800   -0.5870 ha        1 MOL      0.123243
     98 H42        -1.7970   -7.4280    2.1780 ha        1 MOL      0.123243
     99 H43        -5.9950   -7.3840   -0.4480 ha        1 MOL      0.148841
    100 H44        -3.2980   -9.3740    2.3410 ha        1 MOL      0.148841
    101 H45        -5.6330  -10.0870    1.9340 ho        1 MOL      0.375311
    102 N10         0.4120   -3.0000    1.4680 n         1 MOL     -0.116028
    103 C34         1.5740   -2.2380    0.9910 c3        1 MOL     -0.239473
    104 C35         2.6910   -3.2670    0.7390 c         1 MOL      0.553020
    105 O15         2.8170   -4.2100    1.4930 o         1 MOL     -0.537197
    106 C36         1.9720   -0.9530    1.7850 c3        1 MOL      0.036134
    107 C37         2.2900   -1.2190    3.3330 c3        1 MOL     -0.110044
    108 C38         0.9620    0.0930    1.6320 c3        1 MOL     -0.853016
    109 C39         2.7910   -0.1440    4.2710 c3        1 MOL      0.017860
    110 H46         0.6220   -3.6560    2.2090 hn        1 MOL      0.229233
    111 H47         1.2470   -1.8370    0.0250 h1        1 MOL      0.197390
    112 H48         2.8400   -0.4480    1.3570 hc        1 MOL      0.087650
    113 H49         3.1600   -1.8600    3.1540 hc        1 MOL      0.034199
    114 H50         1.4770   -1.7700    3.8010 hc        1 MOL      0.034199
    115 H51        -0.0110   -0.1790    2.0470 hc        1 MOL      0.245201
    116 H52         1.0850    0.8510    2.4030 hc        1 MOL      0.245201
    117 H53         0.7920    0.3980    0.5960 hc        1 MOL      0.245201
    118 H54         2.0780    0.6940    4.2610 hc        1 MOL      0.003156
    119 H55         2.8510   -0.4670    5.3060 hc        1 MOL      0.003156
    120 H56         3.7710    0.2230    3.9840 hc        1 MOL      0.003156
    121 N11         3.3660   -3.1270   -0.4100 n         1 MOL     -0.346876
    122 C40         4.5870   -3.8520   -0.7920 c3        1 MOL     -0.047486
    123 C41         5.7480   -3.1430   -0.2200 c         1 MOL      0.379470
    124 O16         5.6010   -2.0100    0.2220 o         1 MOL     -0.203206
    125 C42         4.6490   -3.8300   -2.3260 c3        1 MOL     -0.139825
    126 O17         4.6400   -2.4630   -2.8780 oh        1 MOL     -0.543534
    127 H57         3.0690   -2.3730   -1.0170 hn        1 MOL      0.257875
    128 H58         4.6010   -4.9020   -0.5080 h1        1 MOL      0.089631
    129 H59         3.7700   -4.3300   -2.7410 h1        1 MOL      0.138730
    130 H60         5.5300   -4.3770   -2.6470 h1        1 MOL      0.138730
    131 H61         3.8450   -1.9870   -2.6320 ho        1 MOL      0.375480
    132 N12         6.9620   -3.7120   -0.1610 n         1 MOL     -0.369639
    133 C43         8.1190   -3.0130    0.5020 c3        1 MOL      0.014962
    134 C44         8.3730   -1.6820   -0.2240 c         1 MOL      0.496514
    135 O18         8.7170   -0.6930    0.4600 o         1 MOL     -0.526338
    136 C45         9.3770   -3.9170    0.6030 c3        1 MOL     -0.350629
    137 H62         7.1150   -4.6810   -0.4180 hn        1 MOL      0.268889
    138 H63         7.7150   -2.8220    1.4910 h1        1 MOL      0.102914
    139 H64        10.2040   -3.3840    1.0800 hc        1 MOL      0.119260
    140 H65         9.1130   -4.7960    1.1850 hc        1 MOL      0.119260
    141 H66         9.8070   -4.2400   -0.3410 hc        1 MOL      0.119260
    142 N13         8.3070   -1.5620   -1.5480 n         1 MOL     -0.358444
    143 C46         8.4150   -0.3170   -2.2970 c3        1 MOL      0.068976
    144 C47         7.4240    0.7910   -1.9020 c         1 MOL      0.354644
    145 O19         7.7040    2.0320   -1.8550 o         1 MOL     -0.493492
    146 C48         8.1880   -0.6190   -3.7980 c3        1 MOL     -0.280679
    147 H67         8.1440   -2.4110   -2.0660 hn        1 MOL      0.255679
    148 H68         9.4160    0.1120   -2.1710 h1        1 MOL      0.094166
    149 H69         8.5010    0.2510   -4.3740 hc        1 MOL      0.086111
    150 H70         8.7650   -1.4820   -4.1290 hc        1 MOL      0.086111
    151 H71         7.1740   -0.9280   -4.0540 hc        1 MOL      0.086111
    152 N14         6.2070    0.3630   -1.4590 n         1 MOL     -0.151956
    153 C49         5.2930    1.2970   -0.7710 c3        1 MOL      0.027584
    154 C50         5.6090    1.6430    0.7450 c         1 MOL      0.381035
    155 O20         5.6070    2.8040    1.1550 o         1 MOL     -0.533847
    156 C51         3.8830    0.7540   -0.7920 c3        1 MOL     -0.155278
    157 C52         3.2850    0.6710   -2.2380 c3        1 MOL     -0.156791
    158 C53         1.9500   -0.0370   -2.1400 c         1 MOL      0.673237
    159 O21         1.9360   -1.2960   -2.2540 o         1 MOL     -0.712903
    160 O22         0.8850    0.5330   -1.7490 o         1 MOL     -0.712903
    161 H72         6.1080   -0.6350   -1.4830 hn        1 MOL      0.166808
    162 H73         5.2620    2.2740   -1.2410 h1        1 MOL      0.082202
    163 H74         3.1520    1.3830   -0.2920 hc        1 MOL      0.100516
    164 H75         4.0440   -0.2630   -0.4240 hc        1 MOL      0.100516
    165 H76         3.9640    0.2090   -2.9460 hc        1 MOL      0.049072
    166 H77         3.0910    1.6730   -2.5930 hc        1 MOL      0.049072
    167 N15         6.0780    0.6670    1.5660 n         1 MOL      0.106800
    168 C54         6.5200    0.9290    2.9470 c3        1 MOL     -0.606123
    169 H78         5.9290    1.7430    3.3690 h1        1 MOL      0.188641
    170 H79         6.3840    0.0310    3.5500 h1        1 MOL      0.188641
    171 H80         7.5730    1.2100    2.9460 h1        1 MOL      0.188641
    172 H81         6.1050   -0.2780    1.2120 hn        1 MOL      0.010851
    173 Ca1        -1.5350   -0.1520   -1.5310 Ca        1 MOL      1.784694
    174 O23        -0.5220   -2.3960   -2.3470 oh        1 MOL     -0.947887
    175 H82         0.3030   -1.9450   -2.5040 ho        1 MOL      0.444943
    176 H83        -0.2770   -3.2720   -2.0780 ho        1 MOL      0.444943
@<TRIPOS>BOND
     1    1    2 1   
     2    1    4 1   
     3    1    5 1   
     4    1    6 1   
     5    2    3 2   
     6    2    7 1   
     7    7    8 1   
     8    7   15 1   
     9    8    9 1   
    10    8   11 1   
    11    8   16 1   
    12    9   10 2   
    13    9   19 1   
    14   11   12 1   
    15   11   17 1   
    16   11   18 1   
    17   12   13 1   
    18   12   14 1   
    19   19   20 1   
    20   19   28 1   
    21   20   21 1   
    22   20   23 1   
    23   20   29 1   
    24   21   22 2   
    25   21   41 1   
    26   23   24 1   
    27   23   30 1   
    28   23   31 1   
    29   24   25 1   
    30   24   32 1   
    31   24   33 1   
    32   25   26 1   
    33   25   34 1   
    34   25   35 1   
    35   26   27 1   
    36   26   36 1   
    37   26   37 1   
    38   27   38 1   
    39   27   39 1   
    40   27   40 1   
    41   41   42 1   
    42   41   49 1   
    43   42   43 1   
    44   42   45 1   
    45   42   50 1   
    46   43   44 2   
    47   43   53 1   
    48   45   46 1   
    49   45   51 1   
    50   45   52 1   
    51   46   47 1   
    52   46   48 1   
    53   53   54 1   
    54   53   57 1   
    55   54   55 1   
    56   54   58 1   
    57   54   59 1   
    58   55   56 2   
    59   55   60 1   
    60   60   61 1   
    61   60   68 1   
    62   61   62 1   
    63   61   64 1   
    64   61   69 1   
    65   62   63 2   
    66   62   74 1   
    67   64   65 1   
    68   64   70 1   
    69   64   71 1   
    70   65   66 1   
    71   65   67 2   
    72   66   72 1   
    73   66   73 1   
    74   74   75 1   
    75   74   78 1   
    76   75   76 1   
    77   75   79 1   
    78   75   80 1   
    79   76   77 2   
    80   76   81 1   
    81   81   82 1   
    82   81   93 1   
    83   82   83 1   
    84   82   85 1   
    85   82   94 1   
    86   83   84 2   
    87   83  102 1   
    88   85   86 1   
    89   85   95 1   
    90   85   96 1   
    91   86   87 ar  
    92   86   88 ar  
    93   87   89 ar  
    94   87   97 1   
    95   88   90 ar  
    96   88   98 1   
    97   89   91 ar  
    98   89   99 1   
    99   90   91 ar  
   100   90  100 1   
   101   91   92 1   
   102   92  101 1   
   103  102  103 1   
   104  102  110 1   
   105  103  104 1   
   106  103  106 1   
   107  103  111 1   
   108  104  105 2   
   109  104  121 1   
   110  106  107 1   
   111  106  108 1   
   112  106  112 1   
   113  107  109 1   
   114  107  113 1   
   115  107  114 1   
   116  108  115 1   
   117  108  116 1   
   118  108  117 1   
   119  109  118 1   
   120  109  119 1   
   121  109  120 1   
   122  121  122 1   
   123  121  127 1   
   124  122  123 1   
   125  122  125 1   
   126  122  128 1   
   127  123  124 2   
   128  123  132 1   
   129  125  126 1   
   130  125  129 1   
   131  125  130 1   
   132  126  131 1   
   133  132  133 1   
   134  132  137 1   
   135  133  134 1   
   136  133  136 1   
   137  133  138 1   
   138  134  135 2   
   139  134  142 1   
   140  136  139 1   
   141  136  140 1   
   142  136  141 1   
   143  142  143 1   
   144  142  147 1   
   145  143  144 1   
   146  143  146 1   
   147  143  148 1   
   148  144  145 2   
   149  144  152 1   
   150  146  149 1   
   151  146  150 1   
   152  146  151 1   
   153  152  153 1   
   154  152  161 1   
   155  153  154 1   
   156  153  156 1   
   157  153  162 1   
   158  154  155 2   
   159  154  167 1   
   160  156  157 1   
   161  156  163 1   
   162  156  164 1   
   163  157  158 1   
   164  157  165 1   
   165  157  166 1   
   166  158  159 1   
   167  158  160 1   
   168  167  168 1   
   169  167  172 1   
   170  168  169 1   
   171  168  170 1   
   172  168  171 1   
   173  174  175 1   
   174  174  176 1   
@<TRIPOS>SUBSTRUCTURE
     1 MOL         1 TEMP              0 ****  ****    0 ROOT
