@<TRIPOS>MOLECULE
MOL
  189   185     1     0     0
SMALL
resp


@<TRIPOS>ATOM
      1 C1          0.9470    4.2230   -4.6690 c3        1 MOL     -0.493706
      2 C2          1.0390    3.1600   -3.5790 c         1 MOL      0.582133
      3 O1          0.0960    3.0500   -2.8390 o         1 MOL     -0.511511
      4 H1          0.8530    5.2070   -4.2090 hc        1 MOL      0.119729
      5 H2          1.8470    4.1940   -5.2820 hc        1 MOL      0.119729
      6 H3          0.0750    4.0300   -5.2930 hc        1 MOL      0.119729
      7 N1          2.1130    2.3900   -3.5660 n         1 MOL     -0.415342
      8 C3          2.5130    1.8800   -2.2950 c3        1 MOL      0.023029
      9 C4          3.0280    3.0620   -1.4260 c         1 MOL      0.355853
     10 O2          3.8730    3.8240   -1.9070 o         1 MOL     -0.553945
     11 C5          3.7380    0.9670   -2.5250 c3        1 MOL     -0.114347
     12 C6          4.3460    0.5100   -1.2110 c         1 MOL      0.794578
     13 O3          3.5760    0.3170   -0.2490 o         1 MOL     -0.672228
     14 O4          5.6000    0.4510   -1.0510 o         1 MOL     -0.672228
     15 H4          2.7830    2.3860   -4.3290 hn        1 MOL      0.319207
     16 H5          1.7500    1.3320   -1.7390 h1        1 MOL      0.021682
     17 H6          4.4850    1.5410   -3.0710 hc        1 MOL      0.012345
     18 H7          3.4330    0.1000   -3.1140 hc        1 MOL      0.012345
     19 N2          2.5050    3.2160   -0.2510 n         1 MOL     -0.130130
     20 C7          2.5780    4.4640    0.5100 c3        1 MOL      0.013156
     21 C8          3.5070    4.3580    1.7370 c         1 MOL      0.524613
     22 O5          3.9880    5.3970    2.2710 o         1 MOL     -0.589156
     23 C9          1.1700    4.8620    0.8230 c3        1 MOL     -0.138347
     24 C10         0.2610    5.5380   -0.2450 c3        1 MOL      0.039752
     25 C11         0.8020    6.8940   -0.8090 c3        1 MOL      0.025023
     26 C12        -0.1800    7.4360   -1.8410 c3        1 MOL     -0.070099
     27 N3          0.5520    8.0610   -2.9650 n4        1 MOL     -0.237240
     28 H8          1.6930    2.6360   -0.0910 hn        1 MOL      0.435891
     29 H9          3.0450    5.2850   -0.0330 h1        1 MOL      0.028863
     30 H10         1.2070    5.6140    1.6150 hc        1 MOL      0.027451
     31 H11         0.6440    3.9630    1.1560 hc        1 MOL      0.027451
     32 H12        -0.7030    5.7520    0.2030 hc        1 MOL      0.014641
     33 H13         0.1070    4.8380   -1.0680 hc        1 MOL      0.014641
     34 H14         1.7780    6.7670   -1.2710 hc        1 MOL      0.035425
     35 H15         0.9890    7.6370   -0.0360 hc        1 MOL      0.035425
     36 H16        -0.9320    8.1440   -1.5170 hx        1 MOL      0.102253
     37 H17        -0.6790    6.5170   -2.1610 hx        1 MOL      0.102253
     38 H18         1.1440    7.4540   -3.5100 hn        1 MOL      0.291105
     39 H19        -0.1140    8.4340   -3.6350 hn        1 MOL      0.291105
     40 H20         1.1470    8.8510   -2.7690 hn        1 MOL      0.291105
     41 N4          3.9450    3.1230    2.0940 n         1 MOL     -0.275330
     42 C13         4.6980    2.9180    3.3360 c3        1 MOL      0.068766
     43 C14         5.8040    1.8600    3.1800 c         1 MOL      0.408665
     44 O6          6.0690    1.0610    4.0480 o         1 MOL     -0.474033
     45 C15         3.6550    2.5050    4.4900 c3        1 MOL     -0.175623
     46 C16         2.8080    1.2460    4.1760 c         1 MOL      0.698631
     47 O7          2.9140    0.6590    3.0650 o         1 MOL     -0.671837
     48 O8          2.0300    0.8750    5.0640 o         1 MOL     -0.671837
     49 H21         3.5060    2.3060    1.7010 hn        1 MOL      0.010470
     50 H22         5.1900    3.8140    3.7130 h1        1 MOL      0.068186
     51 H23         3.0100    3.3590    4.6980 hc        1 MOL      0.051078
     52 H24         4.3210    2.4380    5.3590 hc        1 MOL      0.051078
     53 N5          6.4620    1.9120    2.0190 n         1 MOL     -0.221378
     54 C17         7.7180    1.1730    1.6450 c3        1 MOL     -0.404791
     55 C18         7.7080   -0.3050    1.8120 c         1 MOL      0.587535
     56 O9          8.8100   -0.8270    2.0790 o         1 MOL     -0.575406
     57 H25         6.2130    2.7350    1.4860 hn        1 MOL      0.222408
     58 H26         8.5050    1.5710    2.2860 h1        1 MOL      0.174580
     59 H27         7.7450    1.3830    0.5740 h1        1 MOL      0.174580
     60 N6          6.5820   -1.0240    1.7180 n         1 MOL     -0.210824
     61 C19         6.5790   -2.5130    1.6330 c3        1 MOL     -0.017138
     62 C20         6.5930   -3.0620    0.1490 c         1 MOL      0.437530
     63 O10         6.7140   -4.2890   -0.0150 o         1 MOL     -0.537601
     64 C21         5.5220   -3.0510    2.6270 c3        1 MOL     -0.175891
     65 C22         4.1330   -2.7120    2.1440 c         1 MOL      0.663071
     66 O11         3.8060   -2.6180    0.9200 o         1 MOL     -0.665859
     67 O12         3.2920   -2.4500    2.9790 o         1 MOL     -0.665859
     68 H28         5.6930   -0.5740    1.5670 hn        1 MOL      0.211876
     69 H29         7.5790   -2.8070    1.9650 h1        1 MOL      0.095352
     70 H30         5.6700   -2.6100    3.6120 hc        1 MOL      0.075330
     71 H31         5.6060   -4.1420    2.6470 hc        1 MOL      0.075330
     72 N7          6.3620   -2.3210   -0.8980 n         1 MOL     -0.228762
     73 C23         6.2600   -2.7660   -2.3090 c3        1 MOL      0.056608
     74 C24         4.9450   -3.5470   -2.6920 c         1 MOL      0.451706
     75 O13         4.8860   -4.2200   -3.7110 o         1 MOL     -0.564636
     76 H32         5.9460   -1.4070   -0.7460 hn        1 MOL      0.111105
     77 H33         7.1900   -3.1800   -2.7010 h1        1 MOL      0.045271
     78 H34         6.1840   -1.8540   -2.8990 h1        1 MOL      0.045271
     79 N8          3.8440   -3.3100   -1.9320 n         1 MOL     -0.065230
     80 C25         2.5290   -3.9560   -2.0920 c3        1 MOL     -0.222442
     81 C26         1.4200   -2.9760   -1.8590 c         1 MOL      0.610451
     82 O14         1.5220   -2.0590   -1.0450 o         1 MOL     -0.565630
     83 C27         2.3960   -5.1510   -1.1270 c3        1 MOL      0.500993
     84 C28         2.7820   -6.4880   -1.7760 c3        1 MOL     -0.388506
     85 O15         3.1630   -5.1260    0.1120 oh        1 MOL     -0.668084
     86 H35         4.0390   -2.7170   -1.1390 hn        1 MOL     -0.032900
     87 H36         2.2890   -4.2420   -3.1190 h1        1 MOL      0.100229
     88 H37         1.3390   -5.2840   -0.9180 h1        1 MOL     -0.055128
     89 H38         3.2950   -4.1890    0.2920 ho        1 MOL      0.494717
     90 H39         2.4470   -7.3360   -1.1730 hc        1 MOL      0.092651
     91 H40         2.3580   -6.6020   -2.7690 hc        1 MOL      0.092651
     92 H41         3.8690   -6.5150   -1.8560 hc        1 MOL      0.092651
     93 N9          0.2680   -3.1400   -2.5300 n         1 MOL     -0.533448
     94 C29        -0.9700   -2.2790   -2.5500 c3        1 MOL      0.143243
     95 C30        -2.0510   -3.0730   -1.7130 c         1 MOL      0.433319
     96 O16        -2.4090   -4.1780   -2.1260 o         1 MOL     -0.536388
     97 C31        -1.4040   -2.0030   -4.0110 c3        1 MOL      0.036822
     98 C32        -0.3730   -1.3320   -4.9980 c3        1 MOL     -0.125600
     99 C33        -2.8390   -1.3510   -4.0600 c3        1 MOL     -0.097575
    100 C34        -0.1620    0.2060   -4.6790 c3        1 MOL      0.109711
    101 H42         0.3070   -3.7820   -3.3100 hn        1 MOL      0.297015
    102 H43        -0.8760   -1.3300   -2.0350 h1        1 MOL      0.082902
    103 H44        -1.4300   -3.0030   -4.4410 hc        1 MOL      0.003780
    104 H45        -0.7930   -1.3490   -6.0060 hc        1 MOL      0.031346
    105 H46         0.5890   -1.8330   -4.9430 hc        1 MOL      0.031346
    106 H47        -3.5390   -1.7940   -3.3590 hc        1 MOL      0.014415
    107 H48        -2.7590   -0.3020   -3.7780 hc        1 MOL      0.014415
    108 H49        -3.2240   -1.3530   -5.0830 hc        1 MOL      0.014415
    109 H50         0.2030    0.4800   -3.6820 hc        1 MOL     -0.018055
    110 H51         0.5820    0.6520   -5.3420 hc        1 MOL     -0.018055
    111 H52        -1.1490    0.6360   -4.8320 hc        1 MOL     -0.018055
    112 N10        -2.5110   -2.4800   -0.6160 n         1 MOL     -0.157237
    113 C35        -3.7250   -2.8030    0.1890 c3        1 MOL     -0.014344
    114 C36        -5.0420   -2.1410   -0.3600 c         1 MOL      0.349231
    115 O17        -4.9780   -1.3300   -1.2670 o         1 MOL     -0.282036
    116 C37        -3.6800   -2.3640    1.6570 c3        1 MOL      0.289650
    117 C38        -2.5600   -3.0810    2.3600 c3        1 MOL     -0.474929
    118 O18        -3.4540   -0.9890    1.7790 oh        1 MOL     -0.502300
    119 H53        -2.0880   -1.6040   -0.3230 hn        1 MOL      0.132557
    120 H54        -3.9900   -3.8590    0.1430 h1        1 MOL      0.058322
    121 H55        -4.6140   -2.7210    2.0960 h1        1 MOL      0.024551
    122 H56        -2.6620   -0.8730    1.2470 ho        1 MOL      0.354162
    123 H57        -1.5740   -2.7520    2.0540 hc        1 MOL      0.132732
    124 H58        -2.5620   -2.8940    3.4310 hc        1 MOL      0.132732
    125 H59        -2.6890   -4.1500    2.1740 hc        1 MOL      0.132732
    126 N11        -6.2330   -2.6520    0.0130 n         1 MOL     -0.322497
    127 C39        -7.5290   -1.9330   -0.3410 c3        1 MOL     -0.388435
    128 C40        -7.6740   -0.4990   -0.0550 c         1 MOL      0.377112
    129 O19        -8.3890    0.2550   -0.7650 o         1 MOL     -0.480481
    130 C41        -8.7670   -2.6460    0.2870 c3        1 MOL      0.320008
    131 C42        -8.9340   -4.0760   -0.3070 c3        1 MOL     -0.331602
    132 O20        -8.4410   -2.9490    1.6330 oh        1 MOL     -0.636657
    133 H60        -6.2470   -3.3720    0.7190 hn        1 MOL      0.304470
    134 H61        -7.6610   -2.1030   -1.4110 h1        1 MOL      0.218210
    135 H62        -9.7060   -2.1150    0.1580 h1        1 MOL      0.068538
    136 H63        -9.2440   -3.2310    2.0590 ho        1 MOL      0.405156
    137 H64        -9.0030   -4.0170   -1.3860 hc        1 MOL      0.097306
    138 H65        -8.2110   -4.8380    0.0110 hc        1 MOL      0.097306
    139 H66        -9.9400   -4.3750    0.0010 hc        1 MOL      0.097306
    140 N12        -6.8380   -0.0350    0.8730 n         1 MOL     -0.171592
    141 C43        -6.7460    1.3760    1.2600 c3        1 MOL      0.003522
    142 C44        -5.8790    2.1550    0.2120 c         1 MOL      0.389464
    143 O21        -6.2290    3.2420   -0.1990 o         1 MOL     -0.493007
    144 C45        -6.0560    1.4390    2.6430 c3        1 MOL     -0.071727
    145 C46        -6.6870    0.7360    3.8570 c3        1 MOL     -0.171115
    146 C47        -8.2000    1.0650    4.0060 c3        1 MOL      0.070700
    147 C48        -8.6440    0.1490    5.1370 c3        1 MOL     -0.021100
    148 N13       -10.1160    0.3310    5.4400 n4        1 MOL     -0.296827
    149 H67        -6.1500   -0.6880    1.2050 hn        1 MOL      0.233968
    150 H68        -7.7640    1.7700    1.2860 h1        1 MOL      0.069037
    151 H69        -6.0380    2.5050    2.8680 hc        1 MOL      0.075665
    152 H70        -5.0410    1.0560    2.5350 hc        1 MOL      0.075665
    153 H71        -6.1220    1.1290    4.6940 hc        1 MOL      0.066872
    154 H72        -6.5670   -0.3360    3.7230 hc        1 MOL      0.066872
    155 H73        -8.6730    0.7260    3.0900 hc        1 MOL      0.028719
    156 H74        -8.5050    2.1020    4.1420 hc        1 MOL      0.028719
    157 H75        -8.0270    0.3390    6.0160 hx        1 MOL      0.094380
    158 H76        -8.4970   -0.9000    4.8710 hx        1 MOL      0.094380
    159 H77       -10.7280    0.2210    4.6510 hn        1 MOL      0.299551
    160 H78       -10.3770   -0.2580    6.2100 hn        1 MOL      0.299551
    161 H79       -10.3810    1.2190    5.8330 hn        1 MOL      0.299551
    162 N14        -4.7140    1.6080   -0.2500 n         1 MOL     -0.194603
    163 C49        -3.7270    2.1910   -1.2050 c3        1 MOL     -0.034455
    164 C50        -4.3990    2.2290   -2.6340 c         1 MOL      0.485505
    165 O22        -4.3250    3.2700   -3.2600 o         1 MOL     -0.569911
    166 C51        -2.4110    1.4620   -1.1500 c3        1 MOL      0.071111
    167 C52        -1.6430    1.8850    0.1940 c3        1 MOL      0.116334
    168 C53        -0.5990    0.8530    0.4090 c         1 MOL      0.848028
    169 O23        -0.8880   -0.3240    0.5820 o         1 MOL     -0.860475
    170 O24         0.5810    1.1560    0.4190 o         1 MOL     -0.860475
    171 H80        -4.5130    0.6710    0.0730 hn        1 MOL      0.046936
    172 H81        -3.5720    3.2630   -1.0580 h1        1 MOL      0.050710
    173 H82        -1.7840    1.5450   -2.0460 hc        1 MOL      0.006598
    174 H83        -2.7390    0.4320   -1.0290 hc        1 MOL      0.006598
    175 H84        -2.3110    1.9760    1.0540 hc        1 MOL     -0.065270
    176 H85        -1.2270    2.8510   -0.1010 hc        1 MOL     -0.065270
    177 N15        -4.8550    1.0880   -3.0960 n         1 MOL     -0.023552
    178 C54        -5.7320    0.9770   -4.2630 c3        1 MOL     -0.231741
    179 H86        -5.6770   -0.0350   -4.6630 h1        1 MOL      0.091460
    180 H87        -6.7590    1.1950   -3.9680 h1        1 MOL      0.091460
    181 H88        -5.4130    1.6880   -5.0260 h1        1 MOL      0.091460
    182 H89        -4.8960    0.3110   -2.4540 hn        1 MOL      0.089607
    183 Ca1         1.8930   -0.8440    1.3090 Ca        1 MOL      1.778713
    184 O25         1.0720   -3.4860    1.7280 oh        1 MOL     -0.820143
    185 H90         0.6720   -4.3530    1.7590 ho        1 MOL      0.379220
    186 H91         1.7660   -3.5230    2.3910 ho        1 MOL      0.379220
    187 O26         0.5720   -1.0520    3.5680 oh        1 MOL     -0.820143
    188 H92        -0.1040   -1.3900    4.1560 ho        1 MOL      0.379220
    189 H93         0.9160   -0.2780    4.0080 ho        1 MOL      0.379220
@<TRIPOS>BOND
     1    1    2 1   
     2    1    4 1   
     3    1    5 1   
     4    1    6 1   
     5    2    3 2   
     6    2    7 1   
     7    7    8 1   
     8    7   15 1   
     9    8    9 1   
    10    8   11 1   
    11    8   16 1   
    12    9   10 2   
    13    9   19 1   
    14   11   12 1   
    15   11   17 1   
    16   11   18 1   
    17   12   13 1   
    18   12   14 1   
    19   19   20 1   
    20   19   28 1   
    21   20   21 1   
    22   20   23 1   
    23   20   29 1   
    24   21   22 2   
    25   21   41 1   
    26   23   24 1   
    27   23   30 1   
    28   23   31 1   
    29   24   25 1   
    30   24   32 1   
    31   24   33 1   
    32   25   26 1   
    33   25   34 1   
    34   25   35 1   
    35   26   27 1   
    36   26   36 1   
    37   26   37 1   
    38   27   38 1   
    39   27   39 1   
    40   27   40 1   
    41   41   42 1   
    42   41   49 1   
    43   42   43 1   
    44   42   45 1   
    45   42   50 1   
    46   43   44 2   
    47   43   53 1   
    48   45   46 1   
    49   45   51 1   
    50   45   52 1   
    51   46   47 1   
    52   46   48 1   
    53   53   54 1   
    54   53   57 1   
    55   54   55 1   
    56   54   58 1   
    57   54   59 1   
    58   55   56 2   
    59   55   60 1   
    60   60   61 1   
    61   60   68 1   
    62   61   62 1   
    63   61   64 1   
    64   61   69 1   
    65   62   63 2   
    66   62   72 1   
    67   64   65 1   
    68   64   70 1   
    69   64   71 1   
    70   65   66 1   
    71   65   67 1   
    72   72   73 1   
    73   72   76 1   
    74   73   74 1   
    75   73   77 1   
    76   73   78 1   
    77   74   75 2   
    78   74   79 1   
    79   79   80 1   
    80   79   86 1   
    81   80   81 1   
    82   80   83 1   
    83   80   87 1   
    84   81   82 2   
    85   81   93 1   
    86   83   84 1   
    87   83   85 1   
    88   83   88 1   
    89   84   90 1   
    90   84   91 1   
    91   84   92 1   
    92   85   89 1   
    93   93   94 1   
    94   93  101 1   
    95   94   95 1   
    96   94   97 1   
    97   94  102 1   
    98   95   96 2   
    99   95  112 1   
   100   97   98 1   
   101   97   99 1   
   102   97  103 1   
   103   98  100 1   
   104   98  104 1   
   105   98  105 1   
   106   99  106 1   
   107   99  107 1   
   108   99  108 1   
   109  100  109 1   
   110  100  110 1   
   111  100  111 1   
   112  112  113 1   
   113  112  119 1   
   114  113  114 1   
   115  113  116 1   
   116  113  120 1   
   117  114  115 2   
   118  114  126 1   
   119  116  117 1   
   120  116  118 1   
   121  116  121 1   
   122  117  123 1   
   123  117  124 1   
   124  117  125 1   
   125  118  122 1   
   126  126  127 1   
   127  126  133 1   
   128  127  128 1   
   129  127  130 1   
   130  127  134 1   
   131  128  129 2   
   132  128  140 1   
   133  130  131 1   
   134  130  132 1   
   135  130  135 1   
   136  131  137 1   
   137  131  138 1   
   138  131  139 1   
   139  132  136 1   
   140  140  141 1   
   141  140  149 1   
   142  141  142 1   
   143  141  144 1   
   144  141  150 1   
   145  142  143 2   
   146  142  162 1   
   147  144  145 1   
   148  144  151 1   
   149  144  152 1   
   150  145  146 1   
   151  145  153 1   
   152  145  154 1   
   153  146  147 1   
   154  146  155 1   
   155  146  156 1   
   156  147  148 1   
   157  147  157 1   
   158  147  158 1   
   159  148  159 1   
   160  148  160 1   
   161  148  161 1   
   162  162  163 1   
   163  162  171 1   
   164  163  164 1   
   165  163  166 1   
   166  163  172 1   
   167  164  165 2   
   168  164  177 1   
   169  166  167 1   
   170  166  173 1   
   171  166  174 1   
   172  167  168 1   
   173  167  175 1   
   174  167  176 1   
   175  168  169 1   
   176  168  170 1   
   177  177  178 1   
   178  177  182 1   
   179  178  179 1   
   180  178  180 1   
   181  178  181 1   
   182  184  185 1   
   183  184  186 1   
   184  187  188 1   
   185  187  189 1   
@<TRIPOS>SUBSTRUCTURE
     1 MOL         1 TEMP              0 ****  ****    0 ROOT
