@<TRIPOS>MOLECULE
MOL
  189   185     1     0     0
SMALL
resp


@<TRIPOS>ATOM
      1 C1          0.0400    2.6400    4.9060 c3        1 MOL     -0.469312
      2 C2         -0.5770    2.4960    3.5230 c         1 MOL      0.706889
      3 O1          0.1230    2.6430    2.4780 o         1 MOL     -0.587727
      4 H1         -0.6890    2.3450    5.6610 hc        1 MOL      0.132733
      5 H2          0.9200    2.0000    4.9810 hc        1 MOL      0.132733
      6 H3          0.3300    3.6780    5.0690 hc        1 MOL      0.132733
      7 N1         -1.8460    1.9970    3.4350 n         1 MOL     -0.714747
      8 C3         -2.5690    1.5870    2.2400 c3        1 MOL      0.400490
      9 C4         -3.1580    2.8060    1.5450 c         1 MOL      0.202332
     10 O2         -4.3660    2.8980    1.3990 o         1 MOL     -0.395220
     11 C5         -3.5430    0.4790    2.5910 c3        1 MOL     -0.299517
     12 C6         -4.0810   -0.3550    1.4250 c         1 MOL      0.762918
     13 O3         -4.9570   -1.2310    1.5330 o         1 MOL     -0.691660
     14 O4         -3.6520   -0.0430    0.2760 o         1 MOL     -0.691660
     15 H4         -2.3630    1.8380    4.2870 hn        1 MOL      0.332778
     16 H5         -1.8650    1.2180    1.4830 h1        1 MOL      0.037376
     17 H6         -4.3850    0.8840    3.1460 hc        1 MOL      0.061125
     18 H7         -2.9570   -0.2500    3.1460 hc        1 MOL      0.061125
     19 N2         -2.2450    3.7100    1.0500 n         1 MOL     -0.301855
     20 C7         -2.5530    4.9560    0.3710 c3        1 MOL      0.072715
     21 C8         -3.2950    4.8650   -0.9600 c         1 MOL      0.453645
     22 O5         -3.7360    5.8980   -1.4660 o         1 MOL     -0.582901
     23 C9         -1.3140    5.8010    0.2270 c3        1 MOL     -0.120257
     24 C10        -0.9090    6.4170    1.5530 c3        1 MOL      0.219639
     25 C11        -1.8260    7.5020    2.2330 c3        1 MOL     -0.216943
     26 C12        -2.7790    6.8680    3.1970 c3        1 MOL      0.261889
     27 N3         -3.3030    7.8400    4.1760 n4        1 MOL     -0.529569
     28 H8         -1.2850    3.4060    1.1680 hn        1 MOL      0.325268
     29 H9         -3.2650    5.5080    0.9870 h1        1 MOL      0.026192
     30 H10        -1.5350    6.6300   -0.4430 hc        1 MOL      0.059343
     31 H11        -0.4900    5.1920   -0.1420 hc        1 MOL      0.059343
     32 H12         0.0200    6.9440    1.3410 hc        1 MOL     -0.053269
     33 H13        -0.8470    5.7020    2.3800 hc        1 MOL     -0.053269
     34 H14        -2.3820    8.0170    1.4460 hc        1 MOL      0.066390
     35 H15        -1.1680    8.1640    2.7820 hc        1 MOL      0.066390
     36 H16        -2.2980    6.1610    3.8650 hx        1 MOL      0.038268
     37 H17        -3.5430    6.2500    2.7130 hx        1 MOL      0.038268
     38 H18        -3.9030    8.5200    3.7340 hn        1 MOL      0.358825
     39 H19        -3.7980    7.3570    4.9210 hn        1 MOL      0.358825
     40 H20        -2.6010    8.3360    4.7120 hn        1 MOL      0.358825
     41 N4         -3.5330    3.6960   -1.5340 n         1 MOL     -0.115030
     42 C13        -4.5820    3.4640   -2.5400 c3        1 MOL      0.036048
     43 C14        -5.7120    2.4670   -2.1920 c         1 MOL      0.406429
     44 O6         -6.5330    2.0100   -2.9910 o         1 MOL     -0.523045
     45 C15        -3.8900    3.0910   -3.8550 c3        1 MOL     -0.260935
     46 C16        -2.8330    1.9150   -3.7350 c         1 MOL      0.708487
     47 O7         -2.1640    1.6290   -4.7500 o         1 MOL     -0.675140
     48 O8         -2.7240    1.3110   -2.6540 o         1 MOL     -0.675140
     49 H21        -3.0590    2.8480   -1.2520 hn        1 MOL      0.073645
     50 H22        -5.1560    4.3800   -2.6980 h1        1 MOL      0.082267
     51 H23        -3.4000    3.9670   -4.2680 hc        1 MOL      0.070446
     52 H24        -4.6910    2.7500   -4.5040 hc        1 MOL      0.070446
     53 N5         -5.7550    2.0650   -0.9000 n         1 MOL     -0.114138
     54 C17        -6.8520    1.2950   -0.2870 c3        1 MOL     -0.204175
     55 C18        -7.1140   -0.1420   -0.7240 c         1 MOL      0.580039
     56 O9         -8.2090   -0.6160   -0.6060 o         1 MOL     -0.612966
     57 H25        -5.0500    2.5390   -0.3620 hn        1 MOL      0.028993
     58 H26        -7.7750    1.8610   -0.4230 h1        1 MOL      0.102169
     59 H27        -6.6920    1.2300    0.7880 h1        1 MOL      0.102169
     60 N6         -6.1290   -0.8560   -1.2540 n         1 MOL     -0.175032
     61 C19        -6.2880   -2.1220   -2.0240 c3        1 MOL     -0.066685
     62 C20        -6.3590   -3.3460   -1.2050 c         1 MOL      0.562865
     63 O10        -6.6350   -4.4060   -1.7420 o         1 MOL     -0.568722
     64 C21        -5.3190   -2.1410   -3.1490 c3        1 MOL     -0.270980
     65 C22        -3.8650   -2.0650   -2.7170 c         1 MOL      0.661473
     66 O11        -3.5460   -2.4350   -1.5490 o         1 MOL     -0.645122
     67 O12        -2.9790   -1.6820   -3.5220 o         1 MOL     -0.645122
     68 H28        -5.2160   -0.4630   -1.0870 hn        1 MOL      0.155301
     69 H29        -7.3120   -2.1150   -2.4010 h1        1 MOL      0.113806
     70 H30        -5.4350   -1.2100   -3.6920 hc        1 MOL      0.097664
     71 H31        -5.4840   -2.9430   -3.8630 hc        1 MOL      0.097664
     72 N7         -6.1880   -3.1930    0.1300 n         1 MOL     -0.365434
     73 C23        -6.2080   -4.2260    1.1070 c3        1 MOL     -0.025119
     74 C24        -4.8160   -4.8220    1.4310 c         1 MOL      0.474444
     75 O13        -4.6740   -5.9060    1.9320 o         1 MOL     -0.557250
     76 H32        -5.8500   -2.2820    0.4160 hn        1 MOL      0.299032
     77 H33        -6.9430   -4.9680    0.7830 h1        1 MOL      0.062581
     78 H34        -6.5740   -3.9360    2.0930 h1        1 MOL      0.062581
     79 N8         -3.7320   -4.1650    0.9890 n         1 MOL     -0.045108
     80 C25        -2.4300   -4.6800    1.0240 c3        1 MOL     -0.554548
     81 C26        -1.3570   -3.5230    1.1910 c         1 MOL      0.964153
     82 O14        -1.4010   -2.4330    0.6350 o         1 MOL     -0.728135
     83 C27        -2.0820   -5.5390   -0.1970 c3        1 MOL      0.562757
     84 C28        -2.7450   -6.8910   -0.1460 c3        1 MOL     -0.604052
     85 O15        -2.3550   -4.8440   -1.4100 oh        1 MOL     -0.643392
     86 H35        -3.8740   -3.2930    0.5010 hn        1 MOL      0.091461
     87 H36        -2.3790   -5.3440    1.8910 h1        1 MOL      0.168590
     88 H37        -1.0010   -5.6480   -0.3220 h1        1 MOL     -0.022268
     89 H38        -2.8960   -4.0640   -1.2800 ho        1 MOL      0.410961
     90 H39        -2.5640   -7.2490    0.8690 hc        1 MOL      0.160923
     91 H40        -3.8170   -6.7420   -0.2840 hc        1 MOL      0.160923
     92 H41        -2.3060   -7.5300   -0.9140 hc        1 MOL      0.160923
     93 N9         -0.3330   -3.8390    2.0070 n         1 MOL     -0.804078
     94 C29         0.8320   -3.0010    2.1800 c3        1 MOL      0.015647
     95 C30         2.0350   -3.5730    1.3700 c         1 MOL      0.703055
     96 O16         2.4450   -4.7310    1.5670 o         1 MOL     -0.596169
     97 C31         1.1220   -2.7370    3.6690 c3        1 MOL      0.272438
     98 C32        -0.1760   -2.3130    4.3260 c3        1 MOL      0.144829
     99 C33         2.3030   -1.7760    3.8520 c3        1 MOL     -0.663772
    100 C34        -0.0910   -2.1160    5.8640 c3        1 MOL     -0.144265
    101 H42        -0.3990   -4.7390    2.4500 hn        1 MOL      0.351140
    102 H43         0.6710   -1.9760    1.8420 h1        1 MOL      0.077971
    103 H44         1.4150   -3.6890    4.1010 hc        1 MOL     -0.039515
    104 H45        -1.0710   -2.8550    4.0230 hc        1 MOL     -0.001675
    105 H46        -0.2770   -1.3050    3.9190 hc        1 MOL     -0.001675
    106 H47         2.6840   -1.7680    4.8760 hc        1 MOL      0.162151
    107 H48         3.0960   -2.1600    3.2260 hc        1 MOL      0.162151
    108 H49         1.8970   -0.8200    3.5180 hc        1 MOL      0.162151
    109 H50         0.7160   -1.4930    6.2480 hc        1 MOL      0.020530
    110 H51        -1.0830   -1.7180    6.0830 hc        1 MOL      0.020530
    111 H52         0.0170   -3.1220    6.2780 hc        1 MOL      0.020530
    112 N10         2.6580   -2.7460    0.5810 n         1 MOL     -0.466284
    113 C35         3.9340   -2.9520   -0.1680 c3        1 MOL      0.063755
    114 C36         5.2690   -2.5260    0.4740 c         1 MOL      0.295708
    115 O17         5.3290   -1.6370    1.3260 o         1 MOL     -0.270123
    116 C37         3.9350   -2.2840   -1.5740 c3        1 MOL      0.202669
    117 C38         2.9950   -2.9730   -2.5530 c3        1 MOL     -0.311226
    118 O18         3.5590   -0.9460   -1.4100 oh        1 MOL     -0.637701
    119 H53         2.3020   -1.8060    0.6150 hn        1 MOL      0.328270
    120 H54         4.0540   -4.0040   -0.4270 h1        1 MOL      0.071855
    121 H55         4.9450   -2.2070   -1.9630 h1        1 MOL      0.031709
    122 H56         2.6820   -0.8390   -1.0280 ho        1 MOL      0.465031
    123 H57         2.0330   -3.2620   -2.1280 hc        1 MOL      0.094572
    124 H58         2.8150   -2.3770   -3.4460 hc        1 MOL      0.094572
    125 H59         3.4870   -3.8730   -2.9330 hc        1 MOL      0.094572
    126 N11         6.3890   -3.0700   -0.0190 n         1 MOL     -0.366861
    127 C39         7.7880   -2.5200    0.0570 c3        1 MOL     -0.037973
    128 C40         7.7700   -0.9640   -0.1900 c         1 MOL      0.399698
    129 O19         8.2030   -0.2010    0.6130 o         1 MOL     -0.469576
    130 C41         8.6690   -3.1410   -0.9670 c3        1 MOL      0.489687
    131 C42         9.0430   -4.6050   -0.6240 c3        1 MOL     -0.501359
    132 O20         8.1780   -2.9890   -2.2510 oh        1 MOL     -0.634518
    133 H60         6.2140   -3.7770   -0.7190 hn        1 MOL      0.276048
    134 H61         8.3400   -2.6700    0.9810 h1        1 MOL      0.095789
    135 H62         9.6190   -2.6060   -0.9440 h1        1 MOL     -0.024556
    136 H63         8.8820   -2.6070   -2.7890 ho        1 MOL      0.396886
    137 H64         9.8550   -4.8700   -1.3000 hc        1 MOL      0.132119
    138 H65         9.1640   -4.6420    0.4530 hc        1 MOL      0.132119
    139 H66         8.1310   -5.1710   -0.8330 hc        1 MOL      0.132119
    140 N12         7.0650   -0.4630   -1.2250 n         1 MOL     -0.381467
    141 C43         6.9350    1.0170   -1.5410 c3        1 MOL     -0.005443
    142 C44         6.3240    1.7360   -0.3100 c         1 MOL      0.455135
    143 O21         6.8760    2.7710    0.1180 o         1 MOL     -0.563226
    144 C45         6.0590    1.2120   -2.8720 c3        1 MOL     -0.101039
    145 C46         5.5570    2.5650   -3.2150 c3        1 MOL     -0.273584
    146 C47         6.7310    3.4690   -3.4540 c3        1 MOL     -0.010805
    147 C48         6.2370    4.8810   -3.7060 c3        1 MOL      0.162332
    148 N13         7.4040    5.6920   -4.0130 n4        1 MOL     -0.324766
    149 H67         6.6590   -1.0410   -1.9450 hn        1 MOL      0.217931
    150 H68         7.9140    1.4870   -1.6590 h1        1 MOL      0.083095
    151 H69         5.2170    0.5320   -2.9620 hc        1 MOL      0.091698
    152 H70         6.7410    0.8780   -3.6580 hc        1 MOL      0.091698
    153 H71         5.0070    2.9610   -2.3600 hc        1 MOL      0.112448
    154 H72         4.8840    2.3930   -4.0640 hc        1 MOL      0.112448
    155 H73         7.3070    3.1500   -4.3250 hc        1 MOL      0.022474
    156 H74         7.3510    3.3850   -2.5570 hc        1 MOL      0.022474
    157 H75         5.6440    5.2630   -2.8770 hx        1 MOL      0.053741
    158 H76         5.6080    4.9600   -4.5930 hx        1 MOL      0.053741
    159 H77         8.1390    5.7180   -3.3310 hn        1 MOL      0.312166
    160 H78         7.7990    5.4060   -4.9010 hn        1 MOL      0.312166
    161 H79         7.1070    6.6450   -4.1840 hn        1 MOL      0.312166
    162 N14         5.1970    1.2400    0.1330 n         1 MOL     -0.011971
    163 C49         4.2510    1.9190    1.0620 c3        1 MOL     -0.290416
    164 C50         4.7160    1.7600    2.5030 c         1 MOL      0.461598
    165 O22         4.2210    2.5090    3.3540 o         1 MOL     -0.568596
    166 C51         2.9430    1.1660    1.0350 c3        1 MOL      0.209737
    167 C52         2.1910    1.7480   -0.1900 c3        1 MOL     -0.167712
    168 C53         0.9590    0.8930   -0.4800 c         1 MOL      0.744712
    169 O23         1.0100   -0.3360   -0.6940 o         1 MOL     -0.770695
    170 O24        -0.1880    1.4250   -0.4430 o         1 MOL     -0.770695
    171 H80         4.9300    0.4540   -0.4280 hn        1 MOL      0.121863
    172 H81         4.1200    2.9790    0.8710 h1        1 MOL      0.146117
    173 H82         2.3410    1.1410    1.9370 hc        1 MOL     -0.005803
    174 H83         3.1260    0.1330    0.7390 hc        1 MOL     -0.005803
    175 H84         2.7210    1.8570   -1.1280 hc        1 MOL      0.025161
    176 H85         1.9140    2.7850    0.0270 hc        1 MOL      0.025161
    177 N15         5.5030    0.7490    2.8040 n         1 MOL     -0.080523
    178 C54         6.2360    0.6330    4.0840 c3        1 MOL     -0.367658
    179 H86         5.5960    0.1540    4.8260 h1        1 MOL      0.133669
    180 H87         7.1330    0.0320    3.9370 h1        1 MOL      0.133669
    181 H88         6.5160    1.6260    4.4340 h1        1 MOL      0.133669
    182 H89         5.5630   -0.0700    2.2150 hn        1 MOL      0.097776
    183 Ca1        -1.6960   -0.6040   -1.2820 Ca        1 MOL      1.736707
    184 O25        -0.0850    0.1330   -3.3810 oh        1 MOL     -0.733590
    185 H90        -0.6720    0.8040   -3.7350 ho        1 MOL      0.348000
    186 H91         0.7470    0.5800   -3.2760 ho        1 MOL      0.348000
    187 O26        -0.4970   -2.7570   -2.4040 oh        1 MOL     -0.733590
    188 H92        -0.4570   -2.6260   -3.3510 ho        1 MOL      0.348000
    189 H93        -0.9740   -3.5910   -2.3020 ho        1 MOL      0.348000
@<TRIPOS>BOND
     1    1    2 1   
     2    1    4 1   
     3    1    5 1   
     4    1    6 1   
     5    2    3 2   
     6    2    7 1   
     7    7    8 1   
     8    7   15 1   
     9    8    9 1   
    10    8   11 1   
    11    8   16 1   
    12    9   10 2   
    13    9   19 1   
    14   11   12 1   
    15   11   17 1   
    16   11   18 1   
    17   12   13 1   
    18   12   14 1   
    19   19   20 1   
    20   19   28 1   
    21   20   21 1   
    22   20   23 1   
    23   20   29 1   
    24   21   22 2   
    25   21   41 1   
    26   23   24 1   
    27   23   30 1   
    28   23   31 1   
    29   24   25 1   
    30   24   32 1   
    31   24   33 1   
    32   25   26 1   
    33   25   34 1   
    34   25   35 1   
    35   26   27 1   
    36   26   36 1   
    37   26   37 1   
    38   27   38 1   
    39   27   39 1   
    40   27   40 1   
    41   41   42 1   
    42   41   49 1   
    43   42   43 1   
    44   42   45 1   
    45   42   50 1   
    46   43   44 2   
    47   43   53 1   
    48   45   46 1   
    49   45   51 1   
    50   45   52 1   
    51   46   47 1   
    52   46   48 1   
    53   53   54 1   
    54   53   57 1   
    55   54   55 1   
    56   54   58 1   
    57   54   59 1   
    58   55   56 2   
    59   55   60 1   
    60   60   61 1   
    61   60   68 1   
    62   61   62 1   
    63   61   64 1   
    64   61   69 1   
    65   62   63 2   
    66   62   72 1   
    67   64   65 1   
    68   64   70 1   
    69   64   71 1   
    70   65   66 1   
    71   65   67 1   
    72   72   73 1   
    73   72   76 1   
    74   73   74 1   
    75   73   77 1   
    76   73   78 1   
    77   74   75 2   
    78   74   79 1   
    79   79   80 1   
    80   79   86 1   
    81   80   81 1   
    82   80   83 1   
    83   80   87 1   
    84   81   82 2   
    85   81   93 1   
    86   83   84 1   
    87   83   85 1   
    88   83   88 1   
    89   84   90 1   
    90   84   91 1   
    91   84   92 1   
    92   85   89 1   
    93   93   94 1   
    94   93  101 1   
    95   94   95 1   
    96   94   97 1   
    97   94  102 1   
    98   95   96 2   
    99   95  112 1   
   100   97   98 1   
   101   97   99 1   
   102   97  103 1   
   103   98  100 1   
   104   98  104 1   
   105   98  105 1   
   106   99  106 1   
   107   99  107 1   
   108   99  108 1   
   109  100  109 1   
   110  100  110 1   
   111  100  111 1   
   112  112  113 1   
   113  112  119 1   
   114  113  114 1   
   115  113  116 1   
   116  113  120 1   
   117  114  115 2   
   118  114  126 1   
   119  116  117 1   
   120  116  118 1   
   121  116  121 1   
   122  117  123 1   
   123  117  124 1   
   124  117  125 1   
   125  118  122 1   
   126  126  127 1   
   127  126  133 1   
   128  127  128 1   
   129  127  130 1   
   130  127  134 1   
   131  128  129 2   
   132  128  140 1   
   133  130  131 1   
   134  130  132 1   
   135  130  135 1   
   136  131  137 1   
   137  131  138 1   
   138  131  139 1   
   139  132  136 1   
   140  140  141 1   
   141  140  149 1   
   142  141  142 1   
   143  141  144 1   
   144  141  150 1   
   145  142  143 2   
   146  142  162 1   
   147  144  145 1   
   148  144  151 1   
   149  144  152 1   
   150  145  146 1   
   151  145  153 1   
   152  145  154 1   
   153  146  147 1   
   154  146  155 1   
   155  146  156 1   
   156  147  148 1   
   157  147  157 1   
   158  147  158 1   
   159  148  159 1   
   160  148  160 1   
   161  148  161 1   
   162  162  163 1   
   163  162  171 1   
   164  163  164 1   
   165  163  166 1   
   166  163  172 1   
   167  164  165 2   
   168  164  177 1   
   169  166  167 1   
   170  166  173 1   
   171  166  174 1   
   172  167  168 1   
   173  167  175 1   
   174  167  176 1   
   175  168  169 1   
   176  168  170 1   
   177  177  178 1   
   178  177  182 1   
   179  178  179 1   
   180  178  180 1   
   181  178  181 1   
   182  184  185 1   
   183  184  186 1   
   184  187  188 1   
   185  187  189 1   
@<TRIPOS>SUBSTRUCTURE
     1 MOL         1 TEMP              0 ****  ****    0 ROOT
