@<TRIPOS>MOLECULE
MOL
  172   171     1     0     0
SMALL
resp


@<TRIPOS>ATOM
      1 C1         -0.2930    2.8900    5.8960 c3        1 MOL     -0.429399
      2 C2         -0.7550    2.8580    4.4390 c         1 MOL      0.773278
      3 O1         -0.4600    3.8480    3.7210 o         1 MOL     -0.556821
      4 H1          0.3490    3.7570    6.0530 hc        1 MOL      0.108669
      5 H2         -1.1610    2.9580    6.5510 hc        1 MOL      0.108669
      6 H3          0.2640    1.9800    6.1210 hc        1 MOL      0.108669
      7 N1         -1.7210    1.9620    4.0450 n         1 MOL     -0.669383
      8 C3         -2.3610    1.9270    2.7710 c3        1 MOL      0.201345
      9 C4         -2.8480    3.3580    2.3020 c         1 MOL      0.573671
     10 O2         -3.6700    4.0270    2.9740 o         1 MOL     -0.599440
     11 C5         -3.5450    0.9200    2.8270 c3        1 MOL     -0.249806
     12 C6         -4.1450    0.5260    1.4700 c         1 MOL      0.813768
     13 O3         -3.5770    0.8660    0.4010 o         1 MOL     -0.702421
     14 O4         -5.1650   -0.2040    1.4990 o         1 MOL     -0.702421
     15 H4         -2.1920    1.3150    4.6610 hn        1 MOL      0.320797
     16 H5         -1.7200    1.4760    2.0130 h1        1 MOL      0.005404
     17 H6         -4.2920    1.3560    3.4910 hc        1 MOL      0.049687
     18 H7         -3.2470    0.0380    3.3830 hc        1 MOL      0.049687
     19 N2         -2.3670    3.7840    1.1350 n         1 MOL     -0.308872
     20 C7         -2.6170    5.1070    0.5280 c3        1 MOL      0.375852
     21 C8         -3.7140    5.0280   -0.5460 c         1 MOL      0.278715
     22 O5         -4.2290    6.0980   -0.9610 o         1 MOL     -0.577265
     23 C9         -1.2970    5.6580    0.0430 c3        1 MOL     -0.353588
     24 H8         -1.8210    3.1790    0.5370 hn        1 MOL      0.062133
     25 H9         -3.0240    5.7030    1.3500 h1        1 MOL     -0.007356
     26 H10        -1.0410    5.1320   -0.8770 hc        1 MOL      0.088315
     27 H11        -1.5390    6.6560   -0.2980 hc        1 MOL      0.088315
     28 H12        -0.5130    5.6080    0.7890 hc        1 MOL      0.088315
     29 N3         -4.0690    3.9240   -1.1180 n         1 MOL     -0.162976
     30 C10        -4.9790    3.8190   -2.2460 c3        1 MOL      0.129083
     31 C11        -6.1780    2.8380   -1.9670 c         1 MOL      0.363268
     32 O6         -6.9660    2.5320   -2.8430 o         1 MOL     -0.497739
     33 C12        -4.2510    3.5300   -3.5660 c3        1 MOL     -0.020673
     34 C13        -3.5200    2.2050   -3.5720 c         1 MOL      0.725524
     35 O7         -3.2730    1.5130   -2.5780 o         1 MOL     -0.743547
     36 O8         -3.1450    1.8390   -4.7450 o         1 MOL     -0.743547
     37 H13        -3.5770    3.0770   -0.8870 hn        1 MOL      0.184004
     38 H14        -5.5000    4.7650   -2.4110 h1        1 MOL      0.049080
     39 H15        -3.5410    4.3500   -3.6810 hc        1 MOL     -0.005915
     40 H16        -5.0020    3.5660   -4.3580 hc        1 MOL     -0.005915
     41 N4         -6.3360    2.3900   -0.7270 n         1 MOL     -0.241269
     42 C14        -7.5290    1.6730   -0.2460 c3        1 MOL     -0.019176
     43 C15        -7.7570    0.2720   -0.8390 c         1 MOL      0.383541
     44 O9         -8.9630    0.0150   -1.1470 o         1 MOL     -0.571922
     45 H17        -5.6300    2.5780   -0.0330 hn        1 MOL      0.138915
     46 H18        -8.3500    2.3590   -0.4270 h1        1 MOL      0.068650
     47 H19        -7.5190    1.5770    0.8360 h1        1 MOL      0.068650
     48 N5         -6.7640   -0.5260   -1.0800 n         1 MOL     -0.036183
     49 C16        -6.8640   -1.8440   -1.5560 c3        1 MOL     -0.033466
     50 C17        -6.9670   -2.9250   -0.4790 c         1 MOL      0.378851
     51 O10        -7.5780   -3.9940   -0.6890 o         1 MOL     -0.556957
     52 C18        -5.7450   -2.0420   -2.5860 c3        1 MOL     -0.119624
     53 C19        -4.4500   -2.6400   -2.0800 c         1 MOL      0.600282
     54 N6         -4.2600   -3.9160   -2.1790 n         1 MOL     -0.618005
     55 O11        -3.6160   -1.9520   -1.5230 o         1 MOL     -0.700841
     56 H20        -5.8720   -0.3450   -0.6380 hn        1 MOL      0.070850
     57 H21        -7.7690   -2.0220   -2.1410 h1        1 MOL      0.093934
     58 H22        -5.4850   -1.1250   -3.1050 hc        1 MOL      0.060948
     59 H23        -6.0090   -2.6800   -3.4400 hc        1 MOL      0.060948
     60 H24        -4.8970   -4.5210   -2.6810 hn        1 MOL      0.309528
     61 H25        -3.3410   -4.2610   -1.9650 hn        1 MOL      0.309528
     62 N7         -6.3070   -2.7210    0.6170 n         1 MOL     -0.083141
     63 C20        -6.1620   -3.7500    1.6120 c3        1 MOL     -0.155994
     64 C21        -4.7790   -4.3870    1.6000 c         1 MOL      0.529359
     65 O12        -4.6050   -5.4960    2.1000 o         1 MOL     -0.579619
     66 H26        -5.9150   -1.8130    0.8310 hn        1 MOL      0.174899
     67 H27        -6.9570   -4.4860    1.5180 h1        1 MOL      0.091172
     68 H28        -6.2480   -3.3430    2.6170 h1        1 MOL      0.091172
     69 N8         -3.7110   -3.7560    1.0620 n         1 MOL     -0.210315
     70 C22        -2.2890   -4.2020    1.2940 c3        1 MOL     -0.206783
     71 C23        -1.3940   -2.9670    1.5180 c         1 MOL      0.564351
     72 O13        -1.5770   -1.9490    0.8830 o         1 MOL     -0.457667
     73 C24        -1.7080   -4.9420    0.0310 c3        1 MOL      0.350888
     74 C25        -2.4120   -6.2370   -0.2840 c3        1 MOL     -0.468664
     75 O14        -1.7670   -4.1090   -1.1280 oh        1 MOL     -0.499463
     76 H29        -3.8130   -2.8780    0.5720 hn        1 MOL      0.182503
     77 H30        -2.2270   -4.8490    2.1770 h1        1 MOL      0.116564
     78 H31        -0.6510   -5.0960    0.2380 h1        1 MOL      0.030560
     79 H32        -1.1940   -3.3610   -0.9170 ho        1 MOL      0.347299
     80 H33        -1.8150   -6.8430   -0.9690 hc        1 MOL      0.123563
     81 H34        -2.6660   -6.7610    0.6430 hc        1 MOL      0.123563
     82 H35        -3.3480   -5.9970   -0.7920 hc        1 MOL      0.123563
     83 N9         -0.3840   -3.1010    2.3790 n         1 MOL     -0.561236
     84 C26         0.7140   -2.1990    2.2320 c3        1 MOL     -0.258668
     85 C27         1.5270   -2.6320    1.0240 c         1 MOL      0.365361
     86 O15         1.6990   -3.8110    0.7760 o         1 MOL     -0.561468
     87 C28         1.6090   -2.1980    3.5190 c3        1 MOL      0.566829
     88 C29         0.7570   -1.7170    4.7160 c3        1 MOL      0.095140
     89 C30         2.9190   -1.3680    3.4500 c3        1 MOL     -0.405828
     90 C31         1.3970   -1.9310    6.0570 c3        1 MOL     -0.068472
     91 H36        -0.1590   -4.0230    2.7200 hn        1 MOL      0.328306
     92 H37         0.4680   -1.1470    2.1360 h1        1 MOL      0.176991
     93 H38         1.9900   -3.1850    3.7950 hc        1 MOL     -0.101590
     94 H39        -0.0920   -2.3880    4.7480 hc        1 MOL     -0.043333
     95 H40         0.6330   -0.6370    4.6430 hc        1 MOL     -0.043333
     96 H41         3.4410   -1.5050    4.4020 hc        1 MOL      0.055381
     97 H42         3.5150   -1.7530    2.6180 hc        1 MOL      0.055381
     98 H43         2.6540   -0.3270    3.2700 hc        1 MOL      0.055381
     99 H44         0.6570   -1.5120    6.7370 hc        1 MOL     -0.004720
    100 H45         1.4210   -3.0220    6.1360 hc        1 MOL     -0.004720
    101 H46         2.3890   -1.5510    6.2810 hc        1 MOL     -0.004720
    102 N10         1.8660   -1.6160    0.1680 n         1 MOL      0.035624
    103 C32         2.8580   -1.8770   -0.9110 c3        1 MOL      0.270786
    104 C33         4.2790   -1.4640   -0.4900 c         1 MOL      0.130922
    105 O16         4.4170   -0.6010    0.4020 o         1 MOL     -0.195744
    106 C34         2.2530   -1.3390   -2.2650 c3        1 MOL     -0.194505
    107 C35         0.8250   -1.8830   -2.5230 c         1 MOL      0.520700
    108 O17         0.6310   -2.3620   -3.6540 o         1 MOL     -0.625676
    109 O18        -0.1600   -1.8890   -1.7380 o         1 MOL     -0.625676
    110 H47         1.5400   -0.6730    0.3510 hn        1 MOL      0.023457
    111 H48         2.9740   -2.9500   -1.0040 h1        1 MOL      0.008390
    112 H49         2.8720   -1.6870   -3.0920 hc        1 MOL      0.065875
    113 H50         2.3040   -0.2520   -2.1760 hc        1 MOL      0.065875
    114 N11         5.2790   -2.0900   -1.0510 n         1 MOL     -0.445819
    115 C36         6.6840   -1.5530   -0.7950 c3        1 MOL      0.209779
    116 C37         6.9240   -0.0460   -0.7950 c         1 MOL      0.361936
    117 O19         7.5490    0.4810    0.1140 o         1 MOL     -0.443747
    118 C38         7.6950   -2.3410   -1.6390 c3        1 MOL     -0.332351
    119 C39         9.1650   -1.9180   -1.4660 ca        1 MOL      0.090599
    120 C40         9.9080   -2.1650   -0.3190 ca        1 MOL     -0.142064
    121 C41         9.7510   -1.1760   -2.5490 ca        1 MOL     -0.142064
    122 C42        11.1730   -1.5970   -0.1550 ca        1 MOL     -0.164267
    123 C43        11.1400   -0.8530   -2.5380 ca        1 MOL     -0.164267
    124 C44        11.8040   -0.9210   -1.2590 ca        1 MOL     -0.041625
    125 H51         5.0710   -2.8420   -1.6960 hn        1 MOL      0.308637
    126 H52         6.8610   -1.8650    0.2300 h1        1 MOL      0.078578
    127 H53         7.4670   -2.3960   -2.7050 hc        1 MOL      0.111583
    128 H54         7.5720   -3.3740   -1.3280 hc        1 MOL      0.111583
    129 H55         9.4130   -2.5680    0.5560 ha        1 MOL      0.124473
    130 H56         9.2290   -0.8990   -3.4550 ha        1 MOL      0.124473
    131 H57        11.6780   -1.6570    0.7970 ha        1 MOL      0.129033
    132 H58        11.6880   -0.4520   -3.3760 ha        1 MOL      0.129033
    133 H59        12.8450   -0.6400   -1.2160 ha        1 MOL      0.079858
    134 N12         6.3220    0.6990   -1.7950 n         1 MOL     -0.120766
    135 C45         6.4270    2.1510   -1.8220 c3        1 MOL      0.226081
    136 C46         5.7540    2.7730   -0.5910 c         1 MOL      0.147407
    137 O20         6.2570    3.7910   -0.0190 o         1 MOL     -0.496031
    138 C47         5.7000    2.5810   -3.0080 c3        1 MOL     -0.106466
    139 C48         5.8520    1.4110   -3.9880 c3        1 MOL      0.099431
    140 C49         5.7960    0.2220   -3.1020 c3        1 MOL     -0.052720
    141 H60         7.4750    2.4450   -1.8090 h1        1 MOL      0.023535
    142 H61         4.6480    2.8400   -2.8460 hc        1 MOL      0.036181
    143 H62         6.2630    3.4060   -3.4480 hc        1 MOL      0.036181
    144 H63         5.0950    1.3430   -4.7730 hc        1 MOL     -0.005362
    145 H64         6.8080    1.5150   -4.4900 hc        1 MOL     -0.005362
    146 H65         4.7530   -0.1070   -3.0750 h1        1 MOL      0.019997
    147 H66         6.4930   -0.5320   -3.4560 h1        1 MOL      0.019997
    148 N13         4.6790    2.2380   -0.0890 n         1 MOL     -0.025513
    149 C50         4.0720    2.6050    1.1530 c3        1 MOL     -0.078663
    150 C51         4.8840    2.2310    2.4080 c         1 MOL      0.447162
    151 O21         5.0670    2.9890    3.3130 o         1 MOL     -0.581958
    152 C52         2.6480    2.0970    1.2490 c3        1 MOL      0.237428
    153 C53         1.6360    2.6520    0.1990 c3        1 MOL     -0.252256
    154 C54         0.3530    1.7840    0.0830 c         1 MOL      0.779718
    155 O22         0.2370    0.6340    0.5330 o         1 MOL     -0.739311
    156 O23        -0.5580    2.1890   -0.7770 o         1 MOL     -0.739311
    157 H67         4.3250    1.4130   -0.5380 hn        1 MOL      0.089652
    158 H68         3.8750    3.6690    1.1850 h1        1 MOL      0.073117
    159 H69         2.2950    2.4910    2.1980 hc        1 MOL     -0.055420
    160 H70         2.7400    1.0090    1.3310 hc        1 MOL     -0.055420
    161 H71         2.0920    2.6850   -0.7920 hc        1 MOL      0.079667
    162 H72         1.4510    3.7150    0.3900 hc        1 MOL      0.079667
    163 N14         5.5320    1.1170    2.4280 n         1 MOL      0.021716
    164 C55         6.4780    0.6980    3.5530 c3        1 MOL     -0.187988
    165 H73         6.6140    1.5310    4.2420 h1        1 MOL      0.079013
    166 H74         6.0530   -0.1500    4.0890 h1        1 MOL      0.079013
    167 H75         7.4430    0.4160    3.1310 h1        1 MOL      0.079013
    168 H76         5.4490    0.4990    1.6290 hn        1 MOL     -0.009392
    169 Ca1        -1.7600    0.0020   -1.2110 Ca        1 MOL      1.726271
    170 O24        -0.2730    0.8920   -3.2550 oh        1 MOL     -0.809191
    171 H77         0.1010    1.6760   -3.6840 ho        1 MOL      0.396323
    172 H78        -1.0220    0.6570   -3.8010 ho        1 MOL      0.396323
@<TRIPOS>BOND
     1    1    2 1   
     2    1    4 1   
     3    1    5 1   
     4    1    6 1   
     5    2    3 2   
     6    2    7 1   
     7    7    8 1   
     8    7   15 1   
     9    8    9 1   
    10    8   11 1   
    11    8   16 1   
    12    9   10 2   
    13    9   19 1   
    14   11   12 1   
    15   11   17 1   
    16   11   18 1   
    17   12   13 1   
    18   12   14 1   
    19   19   20 1   
    20   19   24 1   
    21   20   21 1   
    22   20   23 1   
    23   20   25 1   
    24   21   22 2   
    25   21   29 1   
    26   23   26 1   
    27   23   27 1   
    28   23   28 1   
    29   29   30 1   
    30   29   37 1   
    31   30   31 1   
    32   30   33 1   
    33   30   38 1   
    34   31   32 2   
    35   31   41 1   
    36   33   34 1   
    37   33   39 1   
    38   33   40 1   
    39   34   35 1   
    40   34   36 1   
    41   41   42 1   
    42   41   45 1   
    43   42   43 1   
    44   42   46 1   
    45   42   47 1   
    46   43   44 2   
    47   43   48 1   
    48   48   49 1   
    49   48   56 1   
    50   49   50 1   
    51   49   52 1   
    52   49   57 1   
    53   50   51 2   
    54   50   62 1   
    55   52   53 1   
    56   52   58 1   
    57   52   59 1   
    58   53   54 1   
    59   53   55 2   
    60   54   60 1   
    61   54   61 1   
    62   62   63 1   
    63   62   66 1   
    64   63   64 1   
    65   63   67 1   
    66   63   68 1   
    67   64   65 2   
    68   64   69 1   
    69   69   70 1   
    70   69   76 1   
    71   70   71 1   
    72   70   73 1   
    73   70   77 1   
    74   71   72 2   
    75   71   83 1   
    76   73   74 1   
    77   73   75 1   
    78   73   78 1   
    79   74   80 1   
    80   74   81 1   
    81   74   82 1   
    82   75   79 1   
    83   83   84 1   
    84   83   91 1   
    85   84   85 1   
    86   84   87 1   
    87   84   92 1   
    88   85   86 2   
    89   85  102 1   
    90   87   88 1   
    91   87   89 1   
    92   87   93 1   
    93   88   90 1   
    94   88   94 1   
    95   88   95 1   
    96   89   96 1   
    97   89   97 1   
    98   89   98 1   
    99   90   99 1   
   100   90  100 1   
   101   90  101 1   
   102  102  103 1   
   103  102  110 1   
   104  103  104 1   
   105  103  106 1   
   106  103  111 1   
   107  104  105 2   
   108  104  114 1   
   109  106  107 1   
   110  106  112 1   
   111  106  113 1   
   112  107  108 1   
   113  107  109 1   
   114  114  115 1   
   115  114  125 1   
   116  115  116 1   
   117  115  118 1   
   118  115  126 1   
   119  116  117 2   
   120  116  134 1   
   121  118  119 1   
   122  118  127 1   
   123  118  128 1   
   124  119  120 ar  
   125  119  121 ar  
   126  120  122 ar  
   127  120  129 1   
   128  121  123 ar  
   129  121  130 1   
   130  122  124 ar  
   131  122  131 1   
   132  123  124 ar  
   133  123  132 1   
   134  124  133 1   
   135  134  135 1   
   136  134  140 1   
   137  135  136 1   
   138  135  138 1   
   139  135  141 1   
   140  136  137 2   
   141  136  148 1   
   142  138  139 1   
   143  138  142 1   
   144  138  143 1   
   145  139  140 1   
   146  139  144 1   
   147  139  145 1   
   148  140  146 1   
   149  140  147 1   
   150  148  149 1   
   151  148  157 1   
   152  149  150 1   
   153  149  152 1   
   154  149  158 1   
   155  150  151 2   
   156  150  163 1   
   157  152  153 1   
   158  152  159 1   
   159  152  160 1   
   160  153  154 1   
   161  153  161 1   
   162  153  162 1   
   163  154  155 1   
   164  154  156 1   
   165  163  164 1   
   166  163  168 1   
   167  164  165 1   
   168  164  166 1   
   169  164  167 1   
   170  170  171 1   
   171  170  172 1   
@<TRIPOS>SUBSTRUCTURE
     1 MOL         1 TEMP              0 ****  ****    0 ROOT
