@<TRIPOS>MOLECULE
MOL
  189   185     1     0     0
SMALL
resp


@<TRIPOS>ATOM
      1 C1          0.2830   -3.1390    6.0680 c3        1 MOL     -0.579171
      2 C2          1.0270   -2.8380    4.7720 c         1 MOL      0.789314
      3 O1          1.1700   -1.6770    4.3650 o         1 MOL     -0.617095
      4 H1         -0.6880   -3.5760    5.8350 hc        1 MOL      0.154733
      5 H2          0.8640   -3.8410    6.6650 hc        1 MOL      0.154733
      6 H3          0.1410   -2.2150    6.6280 hc        1 MOL      0.154733
      7 N1          1.6070   -3.8410    4.0950 n         1 MOL     -0.698319
      8 C3          2.3620   -3.5890    2.8950 c3        1 MOL      0.365408
      9 C4          2.2940   -4.8000    1.9330 c         1 MOL      0.643506
     10 O2          2.4350   -5.9030    2.3670 o         1 MOL     -0.617351
     11 C5          3.7800   -3.3580    3.2780 c3        1 MOL     -0.469672
     12 C6          4.5980   -2.5830    2.2530 c         1 MOL      0.788660
     13 O3          5.8640   -2.5440    2.4100 o         1 MOL     -0.709622
     14 O4          4.0520   -2.1350    1.2510 o         1 MOL     -0.709622
     15 H4          1.7410   -4.6920    4.6240 hn        1 MOL      0.329799
     16 H5          2.0160   -2.7620    2.2730 h1        1 MOL      0.017736
     17 H6          4.2990   -4.3110    3.4090 hc        1 MOL      0.107760
     18 H7          3.7670   -2.7610    4.1870 hc        1 MOL      0.107760
     19 N2          2.0810   -4.4930    0.6620 n         1 MOL     -0.426277
     20 C7          2.1090   -5.4940   -0.4020 c3        1 MOL      0.083796
     21 C8          3.0960   -5.1820   -1.5400 c         1 MOL      0.505873
     22 O5          3.4580   -6.0810   -2.2850 o         1 MOL     -0.573482
     23 C9          0.6320   -5.6750   -0.8250 c3        1 MOL      0.078383
     24 C10        -0.0120   -6.5830    0.2470 c3        1 MOL     -0.060774
     25 C11         0.4610   -6.3490   -2.2130 c3        1 MOL     -0.078691
     26 C12        -1.5390   -6.5150    0.3440 c3        1 MOL     -0.160632
     27 H8          1.8750   -3.5390    0.4190 hn        1 MOL      0.113171
     28 H9          2.4800   -6.4880   -0.1830 h1        1 MOL      0.052543
     29 H10         0.0650   -4.7530   -0.9530 hc        1 MOL      0.059365
     30 H11         0.3790   -6.3980    1.2520 hc        1 MOL      0.016163
     31 H12         0.2340   -7.6240    0.0590 hc        1 MOL      0.016163
     32 H13         1.1370   -5.9930   -3.0020 hc        1 MOL      0.014678
     33 H14         0.6180   -7.4210   -2.1420 hc        1 MOL      0.014678
     34 H15        -0.5140   -6.2730   -2.6920 hc        1 MOL      0.014678
     35 H16        -1.8380   -7.1550    1.1820 hc        1 MOL      0.041320
     36 H17        -1.8620   -5.4880    0.4780 hc        1 MOL      0.041320
     37 H18        -2.1220   -6.9520   -0.4730 hc        1 MOL      0.041320
     38 N3          3.5070   -3.8790   -1.7740 n         1 MOL     -0.395106
     39 C13         4.3730   -3.5910   -2.9390 c3        1 MOL      0.115842
     40 C14         5.7420   -2.9530   -2.5160 c         1 MOL      0.298953
     41 O6          6.6680   -2.7630   -3.3640 o         1 MOL     -0.550666
     42 C15         3.5400   -2.6880   -3.8730 c3        1 MOL     -0.233296
     43 C16         2.7890   -1.5890   -3.1040 c         1 MOL      0.706885
     44 O7          3.1800   -1.1290   -2.0040 o         1 MOL     -0.676289
     45 O8          1.8670   -1.0110   -3.6660 o         1 MOL     -0.676289
     46 H19         3.3160   -3.2240   -1.0230 hn        1 MOL      0.289175
     47 H20         4.6390   -4.4980   -3.4780 h1        1 MOL      0.099920
     48 H21         2.9050   -3.4040   -4.3900 hc        1 MOL      0.070071
     49 H22         4.2340   -2.3540   -4.6460 hc        1 MOL      0.070071
     50 N4          5.9440   -2.5140   -1.2480 n         1 MOL     -0.116266
     51 C17         7.2610   -2.0230   -0.6930 c3        1 MOL     -0.015613
     52 C18         7.6370   -0.5810   -1.1780 c         1 MOL      0.417923
     53 O9          8.7740   -0.2200   -1.1040 o         1 MOL     -0.572830
     54 H23         5.1150   -2.5040   -0.6760 hn        1 MOL      0.039448
     55 H24         8.0220   -2.8020   -0.7860 h1        1 MOL      0.073170
     56 H25         7.0940   -1.9280    0.3790 h1        1 MOL      0.073170
     57 N5          6.6780    0.2870   -1.5530 n         1 MOL     -0.079144
     58 C19         6.9480    1.5920   -2.1980 c3        1 MOL     -0.005842
     59 C20         7.3290    2.7100   -1.1630 c         1 MOL      0.437223
     60 O10         8.1450    3.6440   -1.3860 o         1 MOL     -0.578612
     61 C21         5.7040    1.9510   -3.0770 c3        1 MOL     -0.440671
     62 C22         4.3140    1.9500   -2.4270 c         1 MOL      0.835603
     63 O11         4.1940    1.6880   -1.1700 o         1 MOL     -0.684505
     64 O12         3.3410    2.1760   -3.1720 o         1 MOL     -0.684505
     65 H26         5.7480   -0.0890   -1.4610 hn        1 MOL      0.118802
     66 H27         7.8220    1.4950   -2.8550 h1        1 MOL      0.098639
     67 H28         5.7210    1.2670   -3.9280 hc        1 MOL      0.120614
     68 H29         5.8230    2.9900   -3.3590 hc        1 MOL      0.120614
     69 N6          6.8410    2.6130    0.0710 n         1 MOL     -0.224423
     70 C23         6.9140    3.6830    1.1470 c3        1 MOL     -0.246213
     71 C24         5.5230    4.3270    1.4000 c         1 MOL      0.475891
     72 O13         5.4840    5.1530    2.2960 o         1 MOL     -0.608578
     73 H30         6.2370    1.8240    0.2450 hn        1 MOL      0.201371
     74 H31         7.6760    4.4330    0.9270 h1        1 MOL      0.133684
     75 H32         7.1050    3.1750    2.0960 h1        1 MOL      0.133684
     76 N7          4.4980    4.0110    0.6870 n         1 MOL     -0.046674
     77 C25         3.2070    4.6100    0.9110 c3        1 MOL     -0.054367
     78 C26         2.1600    3.5540    1.1990 c         1 MOL      0.352611
     79 O14         2.2350    2.4400    0.7950 o         1 MOL     -0.474300
     80 C27         2.7770    5.4430   -0.3170 c3        1 MOL      0.060454
     81 C28         3.6380    6.6200   -0.6990 c3        1 MOL     -0.423168
     82 C29         2.8830    7.6240   -1.5510 c         1 MOL      0.759810
     83 N8          2.8760    7.4070   -2.8280 n         1 MOL     -0.826904
     84 O15         2.3060    8.6010   -1.1200 o         1 MOL     -0.600765
     85 H33         4.6240    3.3520   -0.0680 hn        1 MOL      0.128175
     86 H34         3.2250    5.2140    1.8200 h1        1 MOL      0.063508
     87 H35         1.7280    5.6590   -0.1460 hc        1 MOL      0.019449
     88 H36         2.8010    4.8370   -1.2250 hc        1 MOL      0.019449
     89 H37         4.5420    6.2170   -1.1440 hc        1 MOL      0.127514
     90 H38         3.8920    7.1650    0.2100 hc        1 MOL      0.127514
     91 H39         3.1480    6.4790   -3.1040 hn        1 MOL      0.372006
     92 H40         2.3870    8.0100   -3.4760 hn        1 MOL      0.372006
     93 N9          1.0900    3.8930    1.9140 n         1 MOL     -0.279048
     94 C30        -0.0950    3.0110    2.0730 c3        1 MOL     -0.121460
     95 C31        -1.0800    3.2530    0.9670 c         1 MOL      0.614955
     96 O16        -1.5290    4.3830    0.7770 o         1 MOL     -0.609456
     97 C32        -0.7280    3.1650    3.5040 c3        1 MOL      0.105805
     98 C33        -2.1220    2.5750    3.6580 c3        1 MOL     -0.139598
     99 C34         0.2680    2.4170    4.4430 c3        1 MOL     -0.139598
    100 H41         1.0740    4.8230    2.3140 hn        1 MOL      0.232941
    101 H42         0.3470    2.0170    1.9620 h1        1 MOL      0.139770
    102 H43        -0.7080    4.2280    3.7490 hc        1 MOL      0.029997
    103 H44        -2.1520    1.5180    3.3790 hc        1 MOL      0.017949
    104 H45        -2.3830    2.5240    4.7160 hc        1 MOL      0.017949
    105 H46        -2.8250    3.2030    3.1100 hc        1 MOL      0.017949
    106 H47         0.2400    1.3380    4.3070 hc        1 MOL      0.017949
    107 H48         1.2800    2.6330    4.1090 hc        1 MOL      0.017949
    108 H49         0.1750    2.8380    5.4470 hc        1 MOL      0.017949
    109 N10        -1.3670    2.1950    0.2740 n         1 MOL     -0.385810
    110 C35        -2.4320    2.2390   -0.7050 c3        1 MOL      0.156290
    111 C36        -3.8410    2.0130   -0.2670 c         1 MOL      0.099981
    112 O17        -3.9600    1.4470    0.8180 o         1 MOL     -0.060068
    113 C37        -2.1550    1.1140   -1.7450 c3        1 MOL     -0.129274
    114 C38        -3.0700    1.0430   -2.9690 c         1 MOL      0.751343
    115 N11        -3.0430    1.9440   -3.8620 n         1 MOL     -0.724362
    116 O18        -3.8900    0.1320   -3.0010 o         1 MOL     -0.618447
    117 H50        -0.8770    1.3260    0.4430 hn        1 MOL      0.317759
    118 H51        -2.3640    3.1890   -1.2270 h1        1 MOL      0.038769
    119 H52        -2.0820    0.1670   -1.2050 hc        1 MOL      0.051225
    120 H53        -1.1740    1.3290   -2.1490 hc        1 MOL      0.051225
    121 H54        -2.6790    2.8730   -3.7010 hn        1 MOL      0.338922
    122 H55        -3.7490    1.8030   -4.5730 hn        1 MOL      0.338922
    123 N12        -4.8850    2.4950   -0.9580 n         1 MOL     -0.340199
    124 C39        -6.3240    2.3340   -0.5630 c3        1 MOL      0.093653
    125 C40        -6.7450    0.9040   -0.3730 c         1 MOL      0.696641
    126 O19        -7.6090    0.5300    0.4150 o         1 MOL     -0.552036
    127 C41        -7.2890    3.1150   -1.4570 c3        1 MOL      0.075392
    128 C42        -8.7530    2.9410   -1.0830 ca        1 MOL     -0.251857
    129 C43        -9.1240    3.1000    0.2470 ca        1 MOL      0.047576
    130 C44        -9.6570    2.2710   -1.9660 ca        1 MOL      0.047576
    131 C45       -10.5020    2.8610    0.6050 ca        1 MOL     -0.433377
    132 C46       -10.9370    1.9700   -1.5390 ca        1 MOL     -0.433377
    133 C47       -11.4260    2.2170   -0.2280 ca        1 MOL      0.543521
    134 O20       -12.7120    1.8360    0.0770 oh        1 MOL     -0.571900
    135 H56        -4.6720    2.9650   -1.8250 hn        1 MOL      0.201789
    136 H57        -6.4290    2.8440    0.3950 h1        1 MOL      0.042902
    137 H58        -7.2000    2.6660   -2.4480 hc        1 MOL      0.006754
    138 H59        -7.0170    4.1630   -1.5690 hc        1 MOL      0.006754
    139 H60        -8.5190    3.6090    0.9830 ha        1 MOL      0.101272
    140 H61        -9.2970    2.1120   -2.9700 ha        1 MOL      0.101272
    141 H62       -10.8390    3.0290    1.6210 ha        1 MOL      0.159975
    142 H63       -11.5990    1.5030   -2.2450 ha        1 MOL      0.159975
    143 H64       -13.1590    1.4240   -0.6610 ho        1 MOL      0.392393
    144 N13        -5.9700   -0.0380   -0.9360 n         1 MOL     -0.620671
    145 C48        -6.1340   -1.5090   -0.7370 c3        1 MOL      0.344320
    146 C49        -5.2750   -2.0840    0.3630 c         1 MOL      0.213969
    147 O21        -5.5310   -3.2180    0.7880 o         1 MOL     -0.496573
    148 C50        -6.1530   -2.1410   -2.1250 c3        1 MOL     -0.253592
    149 C51        -6.7000   -3.5620   -2.0750 c3        1 MOL     -0.280945
    150 C52        -7.3050   -4.1190   -3.4040 c         1 MOL      0.754166
    151 O22        -8.5030   -3.9120   -3.6710 o         1 MOL     -0.765870
    152 O23        -6.6260   -4.8210   -4.1450 o         1 MOL     -0.765870
    153 H65        -5.3140    0.3590   -1.6040 hn        1 MOL      0.232950
    154 H66        -7.1410   -1.7300   -0.3910 h1        1 MOL      0.050386
    155 H67        -5.1160   -2.2060   -2.4680 hc        1 MOL      0.122315
    156 H68        -6.8290   -1.4880   -2.6800 hc        1 MOL      0.122315
    157 H69        -7.5010   -3.6350   -1.3300 hc        1 MOL      0.064833
    158 H70        -5.9430   -4.2950   -1.8070 hc        1 MOL      0.064833
    159 N14        -4.2240   -1.3790    0.7930 n         1 MOL      0.002731
    160 C53        -3.5380   -1.6120    2.0590 c3        1 MOL     -0.219512
    161 C54        -4.2940   -0.9900    3.2990 c         1 MOL      0.620766
    162 O24        -4.1410   -1.5550    4.3490 o         1 MOL     -0.580679
    163 C55        -2.1120   -1.0180    1.8390 c3        1 MOL      0.026689
    164 C56        -1.2020   -2.0020    1.1150 c3        1 MOL     -0.319039
    165 C57         0.1060   -1.3880    0.6380 c         1 MOL      0.671497
    166 O25         0.8660   -2.0550   -0.0270 o         1 MOL     -0.663449
    167 O26         0.3280   -0.2130    0.8630 o         1 MOL     -0.663449
    168 H71        -3.9270   -0.5460    0.2970 hn        1 MOL      0.031997
    169 H72        -3.5550   -2.6850    2.2520 h1        1 MOL      0.096992
    170 H73        -1.6660   -0.7710    2.8050 hc        1 MOL      0.075897
    171 H74        -2.1120   -0.0940    1.2560 hc        1 MOL      0.075897
    172 H75        -1.6730   -2.4110    0.2250 hc        1 MOL      0.129434
    173 H76        -0.8550   -2.7880    1.7870 hc        1 MOL      0.129434
    174 N15        -4.8680    0.1890    3.1640 n         1 MOL     -0.169772
    175 C58        -5.4590    1.0320    4.1460 c3        1 MOL     -0.250139
    176 H77        -6.3080    0.5220    4.5990 h1        1 MOL      0.100240
    177 H78        -4.7230    1.2650    4.9160 h1        1 MOL      0.100240
    178 H79        -5.7980    1.9550    3.6770 h1        1 MOL      0.100240
    179 H80        -4.6160    0.7170    2.3410 hn        1 MOL     -0.051931
    180 Ca1         2.9110   -0.0310    0.2390 Ca        1 MOL      1.748072
    181 O27         2.5300   -0.0740    2.8960 oh        1 MOL     -0.903139
    182 H81         1.9710   -0.6650    3.3990 ho        1 MOL      0.423735
    183 H82         2.8430    0.5680    3.5370 ho        1 MOL      0.423735
    184 O28         1.3700    0.9820   -1.7240 oh        1 MOL     -0.903139
    185 H83         1.3260    0.2440   -2.3360 ho        1 MOL      0.423735
    186 H84         1.9740    1.5950   -2.1360 ho        1 MOL      0.423735
    187 O29         5.0650    0.9420    1.7060 oh        1 MOL     -0.903139
    188 H85         5.7590    0.4880    2.1720 ho        1 MOL      0.423735
    189 H86         4.6670    1.5190    2.3630 ho        1 MOL      0.423735
@<TRIPOS>BOND
     1    1    2 1   
     2    1    4 1   
     3    1    5 1   
     4    1    6 1   
     5    2    3 2   
     6    2    7 1   
     7    7    8 1   
     8    7   15 1   
     9    8    9 1   
    10    8   11 1   
    11    8   16 1   
    12    9   10 2   
    13    9   19 1   
    14   11   12 1   
    15   11   17 1   
    16   11   18 1   
    17   12   13 1   
    18   12   14 1   
    19   19   20 1   
    20   19   27 1   
    21   20   21 1   
    22   20   23 1   
    23   20   28 1   
    24   21   22 2   
    25   21   38 1   
    26   23   24 1   
    27   23   25 1   
    28   23   29 1   
    29   24   26 1   
    30   24   30 1   
    31   24   31 1   
    32   25   32 1   
    33   25   33 1   
    34   25   34 1   
    35   26   35 1   
    36   26   36 1   
    37   26   37 1   
    38   38   39 1   
    39   38   46 1   
    40   39   40 1   
    41   39   42 1   
    42   39   47 1   
    43   40   41 2   
    44   40   50 1   
    45   42   43 1   
    46   42   48 1   
    47   42   49 1   
    48   43   44 1   
    49   43   45 1   
    50   50   51 1   
    51   50   54 1   
    52   51   52 1   
    53   51   55 1   
    54   51   56 1   
    55   52   53 2   
    56   52   57 1   
    57   57   58 1   
    58   57   65 1   
    59   58   59 1   
    60   58   61 1   
    61   58   66 1   
    62   59   60 2   
    63   59   69 1   
    64   61   62 1   
    65   61   67 1   
    66   61   68 1   
    67   62   63 1   
    68   62   64 1   
    69   69   70 1   
    70   69   73 1   
    71   70   71 1   
    72   70   74 1   
    73   70   75 1   
    74   71   72 2   
    75   71   76 1   
    76   76   77 1   
    77   76   85 1   
    78   77   78 1   
    79   77   80 1   
    80   77   86 1   
    81   78   79 2   
    82   78   93 1   
    83   80   81 1   
    84   80   87 1   
    85   80   88 1   
    86   81   82 1   
    87   81   89 1   
    88   81   90 1   
    89   82   83 1   
    90   82   84 2   
    91   83   91 1   
    92   83   92 1   
    93   93   94 1   
    94   93  100 1   
    95   94   95 1   
    96   94   97 1   
    97   94  101 1   
    98   95   96 2   
    99   95  109 1   
   100   97   98 1   
   101   97   99 1   
   102   97  102 1   
   103   98  103 1   
   104   98  104 1   
   105   98  105 1   
   106   99  106 1   
   107   99  107 1   
   108   99  108 1   
   109  109  110 1   
   110  109  117 1   
   111  110  111 1   
   112  110  113 1   
   113  110  118 1   
   114  111  112 2   
   115  111  123 1   
   116  113  114 1   
   117  113  119 1   
   118  113  120 1   
   119  114  115 1   
   120  114  116 2   
   121  115  121 1   
   122  115  122 1   
   123  123  124 1   
   124  123  135 1   
   125  124  125 1   
   126  124  127 1   
   127  124  136 1   
   128  125  126 2   
   129  125  144 1   
   130  127  128 1   
   131  127  137 1   
   132  127  138 1   
   133  128  129 ar  
   134  128  130 ar  
   135  129  131 ar  
   136  129  139 1   
   137  130  132 ar  
   138  130  140 1   
   139  131  133 ar  
   140  131  141 1   
   141  132  133 ar  
   142  132  142 1   
   143  133  134 1   
   144  134  143 1   
   145  144  145 1   
   146  144  153 1   
   147  145  146 1   
   148  145  148 1   
   149  145  154 1   
   150  146  147 2   
   151  146  159 1   
   152  148  149 1   
   153  148  155 1   
   154  148  156 1   
   155  149  150 1   
   156  149  157 1   
   157  149  158 1   
   158  150  151 1   
   159  150  152 1   
   160  159  160 1   
   161  159  168 1   
   162  160  161 1   
   163  160  163 1   
   164  160  169 1   
   165  161  162 2   
   166  161  174 1   
   167  163  164 1   
   168  163  170 1   
   169  163  171 1   
   170  164  165 1   
   171  164  172 1   
   172  164  173 1   
   173  165  166 1   
   174  165  167 1   
   175  174  175 1   
   176  174  179 1   
   177  175  176 1   
   178  175  177 1   
   179  175  178 1   
   180  181  182 1   
   181  181  183 1   
   182  184  185 1   
   183  184  186 1   
   184  187  188 1   
   185  187  189 1   
@<TRIPOS>SUBSTRUCTURE
     1 MOL         1 TEMP              0 ****  ****    0 ROOT
