@<TRIPOS>MOLECULE
MOL
  189   185     1     0     0
SMALL
resp


@<TRIPOS>ATOM
      1 C1          1.0870   -4.8430    5.6930 c3        1 MOL     -0.398550
      2 C2          1.3660   -4.0300    4.4010 c         1 MOL      0.799123
      3 O1          1.0380   -2.8480    4.2890 o         1 MOL     -0.627386
      4 H1          1.8540   -5.6090    5.8120 hc        1 MOL      0.096290
      5 H2          1.1060   -4.1760    6.5540 hc        1 MOL      0.096290
      6 H3          0.1090   -5.3170    5.6210 hc        1 MOL      0.096290
      7 N1          1.9870   -4.7210    3.4280 n         1 MOL     -0.799410
      8 C3          2.6000   -4.0580    2.2520 c3        1 MOL      0.519885
      9 C4          2.5630   -4.9460    0.9910 c         1 MOL      0.388591
     10 O2          3.3500   -5.9060    0.9640 o         1 MOL     -0.580617
     11 C5          3.9750   -3.5520    2.5870 c3        1 MOL     -0.331097
     12 C6          4.6060   -2.6170    1.5220 c         1 MOL      0.935116
     13 O3          5.7860   -2.2260    1.7370 o         1 MOL     -0.744850
     14 O4          3.9780   -2.3540    0.4960 o         1 MOL     -0.744850
     15 H4          2.1710   -5.6900    3.6580 hn        1 MOL      0.359473
     16 H5          2.0190   -3.1640    2.0310 h1        1 MOL      0.043938
     17 H6          4.6460   -4.3920    2.7900 hc        1 MOL      0.021303
     18 H7          3.7240   -2.9180    3.4400 hc        1 MOL      0.021303
     19 N2          1.6520   -4.6760    0.1150 n         1 MOL     -0.107633
     20 C7          1.3550   -5.5440   -1.0320 c3        1 MOL     -0.341117
     21 C8          2.3110   -5.1840   -2.2300 c         1 MOL      0.574653
     22 O5          2.4120   -5.8860   -3.2330 o         1 MOL     -0.585995
     23 C9         -0.0960   -5.6300   -1.4610 c3        1 MOL      0.330447
     24 C10        -0.5560   -4.2990   -2.1260 c3        1 MOL     -0.273877
     25 C11        -0.9790   -5.8970   -0.2210 c3        1 MOL     -0.289827
     26 C12        -2.0550   -4.3670   -2.5210 c3        1 MOL     -0.208076
     27 H8          1.1640   -3.7930    0.2010 hn        1 MOL      0.040920
     28 H9          1.6160   -6.5390   -0.6850 h1        1 MOL      0.140618
     29 H10        -0.1740   -6.4530   -2.1760 hc        1 MOL     -0.022685
     30 H11        -0.0050   -4.1150   -3.0510 hc        1 MOL      0.132802
     31 H12        -0.4450   -3.4160   -1.5000 hc        1 MOL      0.132802
     32 H13        -0.4910   -6.6670    0.3640 hc        1 MOL      0.059945
     33 H14        -1.0910   -4.9650    0.3410 hc        1 MOL      0.059945
     34 H15        -1.9780   -6.2560   -0.4880 hc        1 MOL      0.059945
     35 H16        -2.2650   -5.2440   -3.1370 hc        1 MOL      0.068394
     36 H17        -2.8060   -4.4770   -1.7460 hc        1 MOL      0.068394
     37 H18        -2.3430   -3.5040   -3.1130 hc        1 MOL      0.068394
     38 N3          3.0610   -4.0980   -2.1850 n         1 MOL     -0.319119
     39 C13         3.8130   -3.4870   -3.2480 c3        1 MOL     -0.186109
     40 C14         5.1560   -2.8540   -2.9470 c         1 MOL      0.640545
     41 O6          5.8110   -2.5280   -3.9310 o         1 MOL     -0.586524
     42 C15         2.8870   -2.6710   -4.1260 c3        1 MOL     -0.010045
     43 C16         2.3400   -1.4480   -3.4140 c         1 MOL      0.679438
     44 O7          2.8190   -1.0880   -2.2830 o         1 MOL     -0.692909
     45 O8          1.5010   -0.7140   -3.9910 o         1 MOL     -0.692909
     46 H19         2.8120   -3.4370   -1.4590 hn        1 MOL      0.244515
     47 H20         4.0310   -4.3380   -3.8940 h1        1 MOL      0.123567
     48 H21         1.9830   -3.2380   -4.3450 hc        1 MOL      0.019841
     49 H22         3.3040   -2.3920   -5.0930 hc        1 MOL      0.019841
     50 N4          5.7560   -2.8080   -1.7300 n         1 MOL     -0.404132
     51 C17         7.0710   -2.3340   -1.4840 c3        1 MOL     -0.199674
     52 C18         7.3050   -0.8240   -1.5060 c         1 MOL      0.562739
     53 O9          8.3510   -0.4300   -1.0880 o         1 MOL     -0.596950
     54 H23         5.1980   -2.8330   -0.8930 hn        1 MOL      0.232494
     55 H24         7.6530   -2.7570   -2.3070 h1        1 MOL      0.116451
     56 H25         7.5410   -2.7690   -0.6010 h1        1 MOL      0.116451
     57 N5          6.2660   -0.0370   -1.9420 n         1 MOL     -0.314338
     58 C19         6.6370    1.3630   -2.2730 c3        1 MOL      0.046693
     59 C20         6.9780    2.2300   -1.0120 c         1 MOL      0.363146
     60 O10         7.3810    3.4100   -1.1870 o         1 MOL     -0.584482
     61 C21         5.5000    1.9520   -3.1220 c3        1 MOL     -0.122743
     62 C22         4.1030    2.1720   -2.4270 c         1 MOL      0.745319
     63 O11         3.9360    1.7300   -1.2470 o         1 MOL     -0.670600
     64 O12         3.2160    2.7660   -3.0360 o         1 MOL     -0.670600
     65 H26         5.3950   -0.4670   -2.2330 hn        1 MOL      0.182593
     66 H27         7.5240    1.3180   -2.8950 h1        1 MOL      0.076434
     67 H28         5.3840    1.4400   -4.0760 hc        1 MOL      0.029119
     68 H29         5.7720    2.9600   -3.4490 hc        1 MOL      0.029119
     69 N6          6.7250    1.7870    0.2080 n         1 MOL     -0.039672
     70 C23         6.9120    2.6120    1.4260 c3        1 MOL     -0.242805
     71 C24         5.7250    3.6010    1.7810 c         1 MOL      0.686368
     72 O13         5.7870    4.1390    2.9040 o         1 MOL     -0.614217
     73 H30         6.2210    0.9090    0.2430 hn        1 MOL      0.160882
     74 H31         7.7680    3.2880    1.3720 h1        1 MOL      0.090065
     75 H32         7.0550    1.9340    2.2620 h1        1 MOL      0.090065
     76 N7          4.7320    3.8310    0.8860 n         1 MOL     -0.724120
     77 C25         3.4350    4.4670    1.1410 c3        1 MOL      0.454447
     78 C26         2.3630    3.4220    1.4390 c         1 MOL      0.401861
     79 O14         2.5700    2.2510    1.2550 o         1 MOL     -0.460067
     80 C27         2.9690    5.2990   -0.0950 c3        1 MOL     -0.107943
     81 C28         3.9670    6.3950   -0.4950 c3        1 MOL     -0.113189
     82 C29         3.5300    7.3720   -1.6070 c         1 MOL      0.661644
     83 N8          4.4640    8.0980   -2.2120 n         1 MOL     -0.739579
     84 O15         2.3640    7.3860   -2.1120 o         1 MOL     -0.559881
     85 H33         4.8110    3.3370    0.0000 hn        1 MOL      0.398925
     86 H34         3.5150    5.0670    2.0430 h1        1 MOL     -0.022733
     87 H35         2.0680    5.8360    0.2150 hc        1 MOL      0.031677
     88 H36         2.7900    4.6120   -0.9250 hc        1 MOL      0.031677
     89 H37         4.8460    5.8440   -0.8290 hc        1 MOL      0.014538
     90 H38         4.0970    7.0770    0.3430 hc        1 MOL      0.014538
     91 H39         5.4170    8.0170   -1.8790 hn        1 MOL      0.327205
     92 H40         4.2530    8.7950   -2.9120 hn        1 MOL      0.327205
     93 N9          1.1730    3.9010    1.8660 n         1 MOL     -0.537154
     94 C30         0.1060    2.9760    2.3740 c3        1 MOL      0.005189
     95 C31        -1.0700    3.3770    1.5040 c         1 MOL      0.490032
     96 O16        -1.4950    4.5000    1.4690 o         1 MOL     -0.572452
     97 C32        -0.1290    3.2710    3.8280 c3        1 MOL      0.225766
     98 C33        -1.1600    2.1890    4.3440 c3        1 MOL     -0.290890
     99 C34         1.1110    3.1050    4.6590 c3        1 MOL     -0.290890
    100 H41         1.1480    4.8660    2.1800 hn        1 MOL      0.297547
    101 H42         0.4690    1.9480    2.3370 h1        1 MOL      0.194680
    102 H43        -0.5960    4.2170    4.0820 hc        1 MOL     -0.017533
    103 H44        -2.1190    2.2100    3.8230 hc        1 MOL      0.060390
    104 H45        -0.7080    1.2130    4.1660 hc        1 MOL      0.060390
    105 H46        -1.4330    2.3250    5.3840 hc        1 MOL      0.060390
    106 H47         1.5470    2.1110    4.5690 hc        1 MOL      0.060390
    107 H48         1.8340    3.8280    4.2860 hc        1 MOL      0.060390
    108 H49         0.9300    3.2360    5.7200 hc        1 MOL      0.060390
    109 N10        -1.6750    2.3590    0.9020 n         1 MOL     -0.165388
    110 C35        -2.9490    2.4540    0.1370 c3        1 MOL     -0.007536
    111 C36        -4.1830    2.3400    0.9960 c         1 MOL      0.317749
    112 O17        -4.1160    1.8260    2.0720 o         1 MOL     -0.336781
    113 C37        -2.9800    1.2220   -0.8510 c3        1 MOL     -0.123821
    114 C38        -3.9450    1.3030   -2.0660 c         1 MOL      0.694628
    115 N11        -4.1770    2.4080   -2.7570 n         1 MOL     -0.794016
    116 O18        -4.5870    0.2560   -2.2950 o         1 MOL     -0.547477
    117 H50        -1.2820    1.4360    1.0010 hn        1 MOL      0.089955
    118 H51        -3.0240    3.3980   -0.4140 h1        1 MOL      0.086423
    119 H52        -3.1800    0.2970   -0.3000 hc        1 MOL      0.095844
    120 H53        -1.9870    1.2330   -1.3060 hc        1 MOL      0.095844
    121 H54        -3.6660    3.2730   -2.7030 hn        1 MOL      0.356075
    122 H55        -4.6620    2.1990   -3.6190 hn        1 MOL      0.356075
    123 N12        -5.3640    2.6610    0.4870 n         1 MOL     -0.195631
    124 C39        -6.6890    2.5610    1.1530 c3        1 MOL     -0.039854
    125 C40        -7.0570    1.0480    1.4090 c         1 MOL      0.235266
    126 O19        -7.5980    0.5800    2.3940 o         1 MOL     -0.509977
    127 C41        -7.7780    3.2290    0.2610 c3        1 MOL      0.011686
    128 C42        -7.9360    2.5810   -1.1130 ca        1 MOL      0.071872
    129 C43        -7.1560    3.1170   -2.2130 ca        1 MOL     -0.263327
    130 C44        -8.9500    1.6550   -1.2800 ca        1 MOL     -0.263327
    131 C45        -7.5710    2.6910   -3.5310 ca        1 MOL     -0.176159
    132 C46        -9.3270    1.2490   -2.5420 ca        1 MOL     -0.176159
    133 C47        -8.5990    1.7540   -3.6390 ca        1 MOL      0.210754
    134 O20        -9.0360    1.3870   -4.8220 oh        1 MOL     -0.389646
    135 H56        -5.3990    2.9640   -0.4710 hn        1 MOL      0.102415
    136 H57        -6.6290    3.0950    2.1010 h1        1 MOL      0.088292
    137 H58        -7.7160    4.3150    0.2250 hc        1 MOL      0.028735
    138 H59        -8.7520    3.1730    0.7470 hc        1 MOL      0.028735
    139 H60        -6.4320    3.9060   -2.1310 ha        1 MOL      0.169282
    140 H61        -9.4330    1.2710   -0.3980 ha        1 MOL      0.169282
    141 H62        -7.1530    3.0550   -4.4590 ha        1 MOL      0.133173
    142 H63       -10.0370    0.4670   -2.7240 ha        1 MOL      0.133173
    143 H64        -8.3480    1.6640   -5.4370 ho        1 MOL      0.329563
    144 N13        -6.5750    0.2290    0.4770 n         1 MOL      0.198077
    145 C48        -6.7170   -1.2820    0.5620 c3        1 MOL     -0.136664
    146 C49        -5.6680   -1.9170    1.5220 c         1 MOL      0.459969
    147 O21        -5.9370   -2.9070    2.1610 o         1 MOL     -0.543307
    148 C50        -6.6360   -2.0390   -0.7810 c3        1 MOL     -0.248366
    149 C51        -7.5620   -1.4510   -1.8420 c3        1 MOL     -0.033860
    150 C52        -7.5990   -2.3380   -3.1040 c         1 MOL      0.658687
    151 O22        -8.7120   -2.7600   -3.6010 o         1 MOL     -0.725082
    152 O23        -6.5320   -2.5120   -3.7720 o         1 MOL     -0.725082
    153 H65        -6.3600    0.6270   -0.4260 hn        1 MOL      0.046563
    154 H66        -7.6400   -1.5500    1.0640 h1        1 MOL      0.083724
    155 H67        -6.7260   -3.1290   -0.7160 hc        1 MOL      0.095964
    156 H68        -5.6190   -1.9190   -1.1500 hc        1 MOL      0.095964
    157 H69        -7.2180   -0.4460   -2.0560 hc        1 MOL      0.038314
    158 H70        -8.5550   -1.4610   -1.3880 hc        1 MOL      0.038314
    159 N14        -4.4800   -1.3480    1.7460 n         1 MOL     -0.021103
    160 C53        -3.4210   -1.7940    2.6050 c3        1 MOL     -0.224663
    161 C54        -3.8000   -1.3550    4.0580 c         1 MOL      0.522308
    162 O24        -3.7040   -2.1640    4.9470 o         1 MOL     -0.566675
    163 C55        -2.1100   -1.1550    2.1700 c3        1 MOL      0.089355
    164 C56        -1.6060   -1.8680    0.8830 c3        1 MOL     -0.168799
    165 C57        -0.2390   -1.2430    0.4870 c         1 MOL      0.829789
    166 O25         0.7620   -1.9350    0.1850 o         1 MOL     -0.762282
    167 O26        -0.0280   -0.0060    0.6600 o         1 MOL     -0.762282
    168 H71        -4.3640   -0.4220    1.3580 hn        1 MOL     -0.100791
    169 H72        -3.3050   -2.8710    2.6250 h1        1 MOL      0.130958
    170 H73        -1.3500   -1.1220    2.9560 hc        1 MOL      0.037369
    171 H74        -2.2600   -0.1140    1.8650 hc        1 MOL      0.037369
    172 H75        -2.2210   -1.8600   -0.0150 hc        1 MOL      0.064859
    173 H76        -1.4120   -2.8950    1.1720 hc        1 MOL      0.064859
    174 N15        -4.0620   -0.0890    4.2620 n         1 MOL     -0.142015
    175 C58        -4.3220    0.4900    5.5940 c3        1 MOL     -0.187480
    176 H77        -5.3730    0.7690    5.6700 h1        1 MOL      0.072922
    177 H78        -4.0860   -0.2450    6.3630 h1        1 MOL      0.072922
    178 H79        -3.7000    1.3750    5.7340 h1        1 MOL      0.072922
    179 H80        -4.0840    0.5820    3.5080 hn        1 MOL      0.153559
    180 Ca1         2.5610   -0.0730    0.0980 Ca        1 MOL      1.693850
    181 O27         2.4020   -0.7550    2.7820 oh        1 MOL     -0.942859
    182 O28         1.1160    1.2990   -2.1190 oh        1 MOL     -0.942859
    183 H81         1.8490   -1.3380    3.3120 ho        1 MOL      0.438851
    184 H82         1.1600    0.5560   -2.7220 ho        1 MOL      0.438851
    185 H83         2.9890   -0.3470    3.4230 ho        1 MOL      0.438851
    186 H84         1.8930    1.8210   -2.3310 ho        1 MOL      0.438851
    187 O29         5.0060    0.3240    1.8380 oh        1 MOL     -0.942859
    188 H85         5.3390    0.7360    2.6290 ho        1 MOL      0.438851
    189 H86         5.5380   -0.4650    1.7330 ho        1 MOL      0.438851
@<TRIPOS>BOND
     1    1    2 1   
     2    1    4 1   
     3    1    5 1   
     4    1    6 1   
     5    2    3 2   
     6    2    7 1   
     7    7    8 1   
     8    7   15 1   
     9    8    9 1   
    10    8   11 1   
    11    8   16 1   
    12    9   10 2   
    13    9   19 1   
    14   11   12 1   
    15   11   17 1   
    16   11   18 1   
    17   12   13 1   
    18   12   14 1   
    19   19   20 1   
    20   19   27 1   
    21   20   21 1   
    22   20   23 1   
    23   20   28 1   
    24   21   22 2   
    25   21   38 1   
    26   23   24 1   
    27   23   25 1   
    28   23   29 1   
    29   24   26 1   
    30   24   30 1   
    31   24   31 1   
    32   25   32 1   
    33   25   33 1   
    34   25   34 1   
    35   26   35 1   
    36   26   36 1   
    37   26   37 1   
    38   38   39 1   
    39   38   46 1   
    40   39   40 1   
    41   39   42 1   
    42   39   47 1   
    43   40   41 2   
    44   40   50 1   
    45   42   43 1   
    46   42   48 1   
    47   42   49 1   
    48   43   44 1   
    49   43   45 1   
    50   50   51 1   
    51   50   54 1   
    52   51   52 1   
    53   51   55 1   
    54   51   56 1   
    55   52   53 2   
    56   52   57 1   
    57   57   58 1   
    58   57   65 1   
    59   58   59 1   
    60   58   61 1   
    61   58   66 1   
    62   59   60 2   
    63   59   69 1   
    64   61   62 1   
    65   61   67 1   
    66   61   68 1   
    67   62   63 1   
    68   62   64 1   
    69   69   70 1   
    70   69   73 1   
    71   70   71 1   
    72   70   74 1   
    73   70   75 1   
    74   71   72 2   
    75   71   76 1   
    76   76   77 1   
    77   76   85 1   
    78   77   78 1   
    79   77   80 1   
    80   77   86 1   
    81   78   79 2   
    82   78   93 1   
    83   80   81 1   
    84   80   87 1   
    85   80   88 1   
    86   81   82 1   
    87   81   89 1   
    88   81   90 1   
    89   82   83 1   
    90   82   84 2   
    91   83   91 1   
    92   83   92 1   
    93   93   94 1   
    94   93  100 1   
    95   94   95 1   
    96   94   97 1   
    97   94  101 1   
    98   95   96 2   
    99   95  109 1   
   100   97   98 1   
   101   97   99 1   
   102   97  102 1   
   103   98  103 1   
   104   98  104 1   
   105   98  105 1   
   106   99  106 1   
   107   99  107 1   
   108   99  108 1   
   109  109  110 1   
   110  109  117 1   
   111  110  111 1   
   112  110  113 1   
   113  110  118 1   
   114  111  112 2   
   115  111  123 1   
   116  113  114 1   
   117  113  119 1   
   118  113  120 1   
   119  114  115 1   
   120  114  116 2   
   121  115  121 1   
   122  115  122 1   
   123  123  124 1   
   124  123  135 1   
   125  124  125 1   
   126  124  127 1   
   127  124  136 1   
   128  125  126 2   
   129  125  144 1   
   130  127  128 1   
   131  127  137 1   
   132  127  138 1   
   133  128  129 ar  
   134  128  130 ar  
   135  129  131 ar  
   136  129  139 1   
   137  130  132 ar  
   138  130  140 1   
   139  131  133 ar  
   140  131  141 1   
   141  132  133 ar  
   142  132  142 1   
   143  133  134 1   
   144  134  143 1   
   145  144  145 1   
   146  144  153 1   
   147  145  146 1   
   148  145  148 1   
   149  145  154 1   
   150  146  147 2   
   151  146  159 1   
   152  148  149 1   
   153  148  155 1   
   154  148  156 1   
   155  149  150 1   
   156  149  157 1   
   157  149  158 1   
   158  150  151 1   
   159  150  152 1   
   160  159  160 1   
   161  159  168 1   
   162  160  161 1   
   163  160  163 1   
   164  160  169 1   
   165  161  162 2   
   166  161  174 1   
   167  163  164 1   
   168  163  170 1   
   169  163  171 1   
   170  164  165 1   
   171  164  172 1   
   172  164  173 1   
   173  165  166 1   
   174  165  167 1   
   175  174  175 1   
   176  174  179 1   
   177  175  176 1   
   178  175  177 1   
   179  175  178 1   
   180  181  183 1   
   181  181  185 1   
   182  182  184 1   
   183  182  186 1   
   184  187  188 1   
   185  187  189 1   
@<TRIPOS>SUBSTRUCTURE
     1 MOL         1 TEMP              0 ****  ****    0 ROOT
