@<TRIPOS>MOLECULE
MOL
  189   185     1     0     0
SMALL
resp


@<TRIPOS>ATOM
      1 C1         -0.0620    3.7720    4.8280 c3        1 MOL     -0.333460
      2 C2         -0.6410    3.2180    3.4790 c         1 MOL      0.634191
      3 O1          0.0660    3.4180    2.5070 o         1 MOL     -0.526588
      4 H1         -0.7710    4.4750    5.2650 hc        1 MOL      0.083469
      5 H2          0.1030    2.9450    5.5190 hc        1 MOL      0.083469
      6 H3          0.8830    4.2810    4.6370 hc        1 MOL      0.083469
      7 N1         -1.7950    2.5600    3.4040 n         1 MOL     -0.572472
      8 C3         -2.3970    2.1510    2.0760 c3        1 MOL      0.326722
      9 C4         -2.8680    3.3010    1.2130 c         1 MOL      0.250044
     10 O2         -3.9720    3.7310    1.2930 o         1 MOL     -0.501295
     11 C5         -3.5450    1.1720    2.3130 c3        1 MOL     -0.261123
     12 C6         -4.1760    0.5220    1.0560 c         1 MOL      0.664298
     13 O3         -3.5770    0.5860   -0.0510 o         1 MOL     -0.625816
     14 O4         -5.3860    0.1180    1.1510 o         1 MOL     -0.625816
     15 H4         -2.3170    2.3690    4.2520 hn        1 MOL      0.319307
     16 H5         -1.6010    1.5770    1.5820 h1        1 MOL     -0.025808
     17 H6         -4.2480    1.6950    2.9630 hc        1 MOL      0.056432
     18 H7         -3.1620    0.4230    3.0040 hc        1 MOL      0.056432
     19 N2         -2.0210    3.6790    0.2290 n         1 MOL      0.048298
     20 C7         -2.3210    4.9220   -0.5350 c3        1 MOL     -0.129974
     21 C8         -3.0370    4.6750   -1.8060 c         1 MOL      0.600495
     22 O5         -3.0960    5.6120   -2.6340 o         1 MOL     -0.573901
     23 C9         -1.0650    5.8170   -0.6700 c3        1 MOL      0.014373
     24 C10        -0.8020    6.2420    0.8160 c3        1 MOL      0.211521
     25 C11         0.4640    7.1840    0.7870 c3        1 MOL     -0.200051
     26 C12         1.0530    7.3930    2.2410 c3        1 MOL     -0.001284
     27 N3          0.2890    8.4340    3.0140 n4        1 MOL     -0.297342
     28 H8         -1.1850    3.1640    0.0000 hn        1 MOL      0.196313
     29 H9         -2.9930    5.5010    0.1150 h1        1 MOL      0.071210
     30 H10        -1.1470    6.6470   -1.3720 hc        1 MOL      0.030843
     31 H11        -0.2280    5.1800   -0.9510 hc        1 MOL      0.030843
     32 H12        -0.6720    5.3580    1.4410 hc        1 MOL     -0.068898
     33 H13        -1.6540    6.8440    1.1170 hc        1 MOL     -0.068898
     34 H14         0.2580    8.0720    0.1810 hc        1 MOL      0.073141
     35 H15         1.2060    6.6850    0.1650 hc        1 MOL      0.073141
     36 H16         2.0210    7.8690    2.0960 hx        1 MOL      0.107835
     37 H17         1.2520    6.4810    2.8010 hx        1 MOL      0.107835
     38 H18         0.3430    9.3680    2.6450 hn        1 MOL      0.303535
     39 H19        -0.7160    8.2990    2.9930 hn        1 MOL      0.303535
     40 H20         0.5690    8.5150    3.9840 hn        1 MOL      0.303535
     41 N4         -3.5740    3.4560   -2.0700 n         1 MOL     -0.527635
     42 C13        -4.3260    3.1510   -3.2980 c3        1 MOL      0.012607
     43 C14        -5.5460    2.2000   -3.1180 c         1 MOL      0.447406
     44 O6         -6.1900    1.6830   -4.0490 o         1 MOL     -0.498386
     45 C15        -3.3330    2.6990   -4.4200 c3        1 MOL     -0.286504
     46 C16        -2.4190    1.4580   -4.1320 c         1 MOL      0.853806
     47 O7         -2.7820    0.5630   -3.3340 o         1 MOL     -0.715704
     48 O8         -1.2840    1.4310   -4.6280 o         1 MOL     -0.715704
     49 H21        -3.3200    2.7160   -1.4400 hn        1 MOL      0.242654
     50 H22        -4.8720    4.0300   -3.6550 h1        1 MOL      0.130349
     51 H23        -2.6910    3.5700   -4.5580 hc        1 MOL      0.083333
     52 H24        -3.8050    2.6350   -5.3980 hc        1 MOL      0.083333
     53 N5         -5.9470    1.9650   -1.8280 n         1 MOL     -0.317708
     54 C17        -7.2780    1.5120   -1.4200 c3        1 MOL     -0.273080
     55 C18        -7.5470    0.0190   -1.5240 c         1 MOL      0.602480
     56 O9         -8.6980   -0.3400   -1.5830 o         1 MOL     -0.603714
     57 H25        -5.2670    2.2130   -1.1320 hn        1 MOL      0.289056
     58 H26        -8.0050    2.0640   -2.0030 h1        1 MOL      0.134487
     59 H27        -7.4040    1.7320   -0.3510 h1        1 MOL      0.134487
     60 N6         -6.5130   -0.8450   -1.5450 n         1 MOL     -0.138412
     61 C19        -6.7120   -2.2790   -1.7770 c3        1 MOL     -0.001517
     62 C20        -6.8540   -3.0540   -0.4660 c         1 MOL      0.485245
     63 O10        -7.0250   -4.2450   -0.5140 o         1 MOL     -0.522203
     64 C21        -5.6600   -2.8570   -2.6990 c3        1 MOL     -0.337426
     65 C22        -4.1890   -2.5550   -2.2630 c         1 MOL      0.742943
     66 O11        -3.9230   -2.5690   -1.0450 o         1 MOL     -0.682619
     67 O12        -3.3070   -2.3200   -3.1380 o         1 MOL     -0.682619
     68 H28        -5.6130   -0.4790   -1.2880 hn        1 MOL      0.068496
     69 H29        -7.7300   -2.3310   -2.1520 h1        1 MOL      0.108023
     70 H30        -5.7680   -2.4560   -3.7030 hc        1 MOL      0.101141
     71 H31        -5.7270   -3.9420   -2.6120 hc        1 MOL      0.101141
     72 N7         -6.7810   -2.3920    0.7240 n         1 MOL     -0.375058
     73 C23        -6.7250   -3.1150    2.0340 c3        1 MOL     -0.148821
     74 C24        -5.3950   -3.7700    2.3980 c         1 MOL      0.492683
     75 O13        -5.4000   -4.5120    3.3950 o         1 MOL     -0.559537
     76 H32        -6.5290   -1.4180    0.7820 hn        1 MOL      0.274287
     77 H33        -7.4440   -3.9390    2.0300 h1        1 MOL      0.108051
     78 H34        -6.9340   -2.4160    2.8460 h1        1 MOL      0.108051
     79 N8         -4.2930   -3.4960    1.6650 n         1 MOL     -0.065606
     80 C25        -2.9990   -4.0720    1.9220 c3        1 MOL     -0.441040
     81 C26        -1.7730   -3.1480    1.6850 c         1 MOL      0.839421
     82 O14        -1.8550   -2.2350    0.8800 o         1 MOL     -0.732494
     83 C27        -2.7850   -5.3520    1.0750 c3        1 MOL      0.537630
     84 C28        -3.6860   -6.4510    1.6600 c3        1 MOL     -0.421536
     85 O15        -3.0930   -5.1170   -0.2820 oh        1 MOL     -0.645377
     86 H35        -4.3580   -2.8650    0.8810 hn        1 MOL      0.130413
     87 H36        -2.9390   -4.3040    2.9820 h1        1 MOL      0.124007
     88 H37        -1.7490   -5.6770    1.1390 h1        1 MOL     -0.059503
     89 H38        -3.3900   -4.1970   -0.3150 ho        1 MOL      0.438612
     90 H39        -3.4010   -7.4370    1.3090 hc        1 MOL      0.108220
     91 H40        -3.6720   -6.4400    2.7510 hc        1 MOL      0.108220
     92 H41        -4.7140   -6.2520    1.3580 hc        1 MOL      0.108220
     93 N9         -0.7320   -3.3480    2.5230 n         1 MOL     -0.626766
     94 C29         0.3480   -2.3120    2.5520 c3        1 MOL      0.010471
     95 C30         1.5410   -2.9680    1.9380 c         1 MOL      0.530954
     96 O16         2.0040   -3.9990    2.3870 o         1 MOL     -0.570830
     97 C31         0.6930   -1.7440    3.9010 c3        1 MOL      0.336366
     98 C32        -0.5110   -1.1030    4.4900 c3        1 MOL      0.238324
     99 C33         1.7740   -0.6270    3.7910 c3        1 MOL     -0.626783
    100 C34        -0.4060   -0.8290    5.9810 c3        1 MOL     -0.332847
    101 H42        -0.7440   -4.0090    3.2740 hn        1 MOL      0.326629
    102 H43         0.0830   -1.5600    1.8040 h1        1 MOL      0.089026
    103 H44         0.9500   -2.5550    4.5820 hc        1 MOL     -0.042865
    104 H45        -1.3530   -1.7770    4.2990 hc        1 MOL     -0.050114
    105 H46        -0.7440   -0.1730    3.9840 hc        1 MOL     -0.050114
    106 H47         1.3380    0.1780    3.1910 hc        1 MOL      0.132161
    107 H48         1.9340   -0.1900    4.7680 hc        1 MOL      0.132161
    108 H49         2.7480   -0.9030    3.3880 hc        1 MOL      0.132161
    109 H50         0.2230    0.0450    6.1380 hc        1 MOL      0.068801
    110 H51        -1.3870   -0.6560    6.4100 hc        1 MOL      0.068801
    111 H52        -0.0190   -1.6910    6.5300 hc        1 MOL      0.068801
    112 N10         2.0830   -2.4940    0.7820 n         1 MOL     -0.285586
    113 C35         3.3620   -2.9750    0.1360 c3        1 MOL     -0.089059
    114 C36         4.6810   -2.5450    0.7450 c         1 MOL      0.495270
    115 O17         4.6100   -1.5870    1.5390 o         1 MOL     -0.437214
    116 C37         3.3440   -2.5670   -1.3540 c3        1 MOL     -0.090444
    117 C38         2.0110   -2.9200   -2.0700 c3        1 MOL     -0.169844
    118 O18         3.5020   -1.2060   -1.4690 oh        1 MOL     -0.197488
    119 H53         1.6520   -1.6630    0.4000 hn        1 MOL      0.315487
    120 H54         3.3230   -4.0680    0.1060 h1        1 MOL      0.120568
    121 H55         4.1430   -3.0100   -1.9510 h1        1 MOL      0.035806
    122 H56         3.3140   -0.8430   -2.3490 ho        1 MOL      0.306551
    123 H57         1.7930   -3.9760   -1.9240 hc        1 MOL      0.058450
    124 H58         1.1990   -2.2840   -1.6970 hc        1 MOL      0.058450
    125 H59         2.0490   -2.7600   -3.1450 hc        1 MOL      0.058450
    126 N11         5.8760   -2.9560    0.2620 n         1 MOL     -0.434595
    127 C39         7.2510   -2.2960    0.6460 c3        1 MOL     -0.069006
    128 C40         7.3750   -0.8390    0.2210 c         1 MOL      0.222233
    129 O19         8.0920   -0.0980    0.9040 o         1 MOL     -0.518037
    130 C41         8.4780   -3.0850    0.0660 c3        1 MOL      0.271967
    131 C42         8.6550   -4.4520    0.6580 c3        1 MOL     -0.386164
    132 O20         8.2650   -3.1570   -1.2570 oh        1 MOL     -0.609132
    133 H60         5.8340   -3.7430   -0.3630 hn        1 MOL      0.300950
    134 H61         7.3720   -2.2110    1.7250 h1        1 MOL      0.145987
    135 H62         9.3960   -2.5170    0.2200 h1        1 MOL      0.031894
    136 H63         8.9970   -3.5500   -1.7300 ho        1 MOL      0.392562
    137 H64         9.4130   -5.0370    0.1510 hc        1 MOL      0.115253
    138 H65         9.0860   -4.3860    1.6520 hc        1 MOL      0.115253
    139 H66         7.7000   -4.9880    0.5860 hc        1 MOL      0.115253
    140 N12         6.6750   -0.3740   -0.8130 n         1 MOL      0.383451
    141 C43         6.8250    0.9850   -1.2600 c3        1 MOL     -0.106710
    142 C44         6.0050    1.9470   -0.5180 c         1 MOL      0.309230
    143 O21         6.3290    3.1190   -0.2950 o         1 MOL     -0.498922
    144 C45         6.4790    1.0030   -2.7690 c3        1 MOL     -0.153191
    145 C46         7.1210   -0.1580   -3.5550 c3        1 MOL     -0.138897
    146 C47         8.6820   -0.1200   -3.5530 c3        1 MOL      0.111571
    147 C48         9.3940   -1.1600   -4.4420 c3        1 MOL      0.089522
    148 N13        10.8000   -0.8770   -4.6270 n4        1 MOL     -0.386704
    149 H67         6.0510   -0.9830   -1.3270 hn        1 MOL      0.024575
    150 H68         7.8880    1.2320   -1.2260 h1        1 MOL      0.056878
    151 H69         6.8150    1.9730   -3.1610 hc        1 MOL      0.092900
    152 H70         5.4070    1.0400   -2.9350 hc        1 MOL      0.092900
    153 H71         6.7890    0.0770   -4.5610 hc        1 MOL      0.038429
    154 H72         6.7620   -1.1390   -3.2460 hc        1 MOL      0.038429
    155 H73         9.0530   -0.3050   -2.5440 hc        1 MOL     -0.001358
    156 H74         8.9730    0.9010   -3.7840 hc        1 MOL     -0.001358
    157 H75         8.8990   -1.2540   -5.4040 hx        1 MOL      0.053941
    158 H76         9.2570   -2.1570   -4.0090 hx        1 MOL      0.053941
    159 H77        11.1980   -1.5870   -5.2220 hn        1 MOL      0.310596
    160 H78        10.9250    0.0470   -5.0070 hn        1 MOL      0.310596
    161 H79        11.2550   -0.8690   -3.7190 hn        1 MOL      0.310596
    162 N14         4.8280    1.4980   -0.0650 n         1 MOL      0.153568
    163 C49         3.8650    2.3270    0.7330 c3        1 MOL     -0.430690
    164 C50         4.4410    2.4120    2.1360 c         1 MOL      0.618624
    165 O22         4.5190    3.4940    2.6830 o         1 MOL     -0.572541
    166 C51         2.4860    1.6510    0.6860 c3        1 MOL      0.420634
    167 C52         1.7360    1.8710   -0.6070 c3        1 MOL     -0.222438
    168 C53         0.4790    0.9750   -0.6600 c         1 MOL      0.675869
    169 O23        -0.6010    1.5360   -0.9010 o         1 MOL     -0.724075
    170 O24         0.5300   -0.2650   -0.3810 o         1 MOL     -0.724075
    171 H80         4.5390    0.5630   -0.2870 hn        1 MOL     -0.151048
    172 H81         3.6600    3.3440    0.3740 h1        1 MOL      0.141733
    173 H82         1.9280    2.0450    1.5270 hc        1 MOL     -0.066176
    174 H83         2.6280    0.5890    0.8900 hc        1 MOL     -0.066176
    175 H84         2.3560    1.6220   -1.4650 hc        1 MOL      0.016028
    176 H85         1.4910    2.9310   -0.6370 hc        1 MOL      0.016028
    177 N15         4.9690    1.3480    2.7150 n         1 MOL     -0.263808
    178 C54         5.9040    1.4480    3.8900 c3        1 MOL     -0.273625
    179 H86         5.4320    2.0310    4.6810 h1        1 MOL      0.115123
    180 H87         6.1290    0.4480    4.2620 h1        1 MOL      0.115123
    181 H88         6.8280    1.9370    3.5800 h1        1 MOL      0.115123
    182 H89         5.0510    0.5160    2.1430 hn        1 MOL      0.261144
    183 Ca1        -1.9560   -0.8360   -1.3890 Ca        1 MOL      1.737015
    184 O25        -1.0260   -3.4370   -1.6380 oh        1 MOL     -0.777689
    185 H90        -1.3290   -4.1360   -1.0620 ho        1 MOL      0.374325
    186 H91        -0.8050   -3.8790   -2.4530 ho        1 MOL      0.374325
    187 O26        -0.0500   -0.6190   -3.3460 oh        1 MOL     -0.777689
    188 H92        -0.4270    0.0690   -3.8890 ho        1 MOL      0.374325
    189 H93         0.8670   -0.3710   -3.2420 ho        1 MOL      0.374325
@<TRIPOS>BOND
     1    1    2 1   
     2    1    4 1   
     3    1    5 1   
     4    1    6 1   
     5    2    3 2   
     6    2    7 1   
     7    7    8 1   
     8    7   15 1   
     9    8    9 1   
    10    8   11 1   
    11    8   16 1   
    12    9   10 2   
    13    9   19 1   
    14   11   12 1   
    15   11   17 1   
    16   11   18 1   
    17   12   13 1   
    18   12   14 1   
    19   19   20 1   
    20   19   28 1   
    21   20   21 1   
    22   20   23 1   
    23   20   29 1   
    24   21   22 2   
    25   21   41 1   
    26   23   24 1   
    27   23   30 1   
    28   23   31 1   
    29   24   25 1   
    30   24   32 1   
    31   24   33 1   
    32   25   26 1   
    33   25   34 1   
    34   25   35 1   
    35   26   27 1   
    36   26   36 1   
    37   26   37 1   
    38   27   38 1   
    39   27   39 1   
    40   27   40 1   
    41   41   42 1   
    42   41   49 1   
    43   42   43 1   
    44   42   45 1   
    45   42   50 1   
    46   43   44 2   
    47   43   53 1   
    48   45   46 1   
    49   45   51 1   
    50   45   52 1   
    51   46   47 1   
    52   46   48 1   
    53   53   54 1   
    54   53   57 1   
    55   54   55 1   
    56   54   58 1   
    57   54   59 1   
    58   55   56 2   
    59   55   60 1   
    60   60   61 1   
    61   60   68 1   
    62   61   62 1   
    63   61   64 1   
    64   61   69 1   
    65   62   63 2   
    66   62   72 1   
    67   64   65 1   
    68   64   70 1   
    69   64   71 1   
    70   65   66 1   
    71   65   67 1   
    72   72   73 1   
    73   72   76 1   
    74   73   74 1   
    75   73   77 1   
    76   73   78 1   
    77   74   75 2   
    78   74   79 1   
    79   79   80 1   
    80   79   86 1   
    81   80   81 1   
    82   80   83 1   
    83   80   87 1   
    84   81   82 2   
    85   81   93 1   
    86   83   84 1   
    87   83   85 1   
    88   83   88 1   
    89   84   90 1   
    90   84   91 1   
    91   84   92 1   
    92   85   89 1   
    93   93   94 1   
    94   93  101 1   
    95   94   95 1   
    96   94   97 1   
    97   94  102 1   
    98   95   96 2   
    99   95  112 1   
   100   97   98 1   
   101   97   99 1   
   102   97  103 1   
   103   98  100 1   
   104   98  104 1   
   105   98  105 1   
   106   99  106 1   
   107   99  107 1   
   108   99  108 1   
   109  100  109 1   
   110  100  110 1   
   111  100  111 1   
   112  112  113 1   
   113  112  119 1   
   114  113  114 1   
   115  113  116 1   
   116  113  120 1   
   117  114  115 2   
   118  114  126 1   
   119  116  117 1   
   120  116  118 1   
   121  116  121 1   
   122  117  123 1   
   123  117  124 1   
   124  117  125 1   
   125  118  122 1   
   126  126  127 1   
   127  126  133 1   
   128  127  128 1   
   129  127  130 1   
   130  127  134 1   
   131  128  129 2   
   132  128  140 1   
   133  130  131 1   
   134  130  132 1   
   135  130  135 1   
   136  131  137 1   
   137  131  138 1   
   138  131  139 1   
   139  132  136 1   
   140  140  141 1   
   141  140  149 1   
   142  141  142 1   
   143  141  144 1   
   144  141  150 1   
   145  142  143 2   
   146  142  162 1   
   147  144  145 1   
   148  144  151 1   
   149  144  152 1   
   150  145  146 1   
   151  145  153 1   
   152  145  154 1   
   153  146  147 1   
   154  146  155 1   
   155  146  156 1   
   156  147  148 1   
   157  147  157 1   
   158  147  158 1   
   159  148  159 1   
   160  148  160 1   
   161  148  161 1   
   162  162  163 1   
   163  162  171 1   
   164  163  164 1   
   165  163  166 1   
   166  163  172 1   
   167  164  165 2   
   168  164  177 1   
   169  166  167 1   
   170  166  173 1   
   171  166  174 1   
   172  167  168 1   
   173  167  175 1   
   174  167  176 1   
   175  168  169 1   
   176  168  170 1   
   177  177  178 1   
   178  177  182 1   
   179  178  179 1   
   180  178  180 1   
   181  178  181 1   
   182  184  185 1   
   183  184  186 1   
   184  187  188 1   
   185  187  189 1   
@<TRIPOS>SUBSTRUCTURE
     1 MOL         1 TEMP              0 ****  ****    0 ROOT
