@<TRIPOS>MOLECULE
MOL
  189   185     1     0     0
SMALL
resp


@<TRIPOS>ATOM
      1 C1          0.0160    4.1830    5.8980 c3        1 MOL     -0.426107
      2 C2         -0.6400    3.6510    4.6150 c         1 MOL      0.791566
      3 O1         -0.9330    2.4780    4.5820 o         1 MOL     -0.594399
      4 H1          1.0010    3.7320    6.0150 hc        1 MOL      0.103762
      5 H2          0.1180    5.2660    5.8330 hc        1 MOL      0.103762
      6 H3         -0.6040    3.9270    6.7580 hc        1 MOL      0.103762
      7 N1         -1.0720    4.5560    3.6800 n         1 MOL     -0.722900
      8 C3         -1.6750    4.0650    2.4420 c3        1 MOL      0.283527
      9 C4         -1.4770    5.0750    1.2980 c         1 MOL      0.581535
     10 O2         -1.6070    6.2920    1.5520 o         1 MOL     -0.574967
     11 C5         -3.1650    3.7100    2.7230 c3        1 MOL     -0.189105
     12 C6         -3.8690    3.2050    1.4750 c         1 MOL      0.683182
     13 O3         -5.0800    3.3800    1.3270 o         1 MOL     -0.684801
     14 O4         -3.1990    2.6310    0.5890 o         1 MOL     -0.684801
     15 H4         -0.9740    5.5500    3.8380 hn        1 MOL      0.335305
     16 H5         -1.0930    3.1990    2.1300 h1        1 MOL      0.007676
     17 H6         -3.6490    4.6440    3.0150 hc        1 MOL      0.045225
     18 H7         -3.3520    2.9890    3.5150 hc        1 MOL      0.045225
     19 N2         -1.1400    4.6430    0.0200 n         1 MOL     -0.354855
     20 C7         -1.1290    5.6000   -1.1650 c3        1 MOL     -0.151872
     21 C8         -2.1040    5.3360   -2.2550 c         1 MOL      0.534640
     22 O5         -2.3860    6.2010   -3.0790 o         1 MOL     -0.575116
     23 C9          0.2960    5.8340   -1.7870 c3        1 MOL      0.128277
     24 C10         0.9310    4.5230   -2.2650 c3        1 MOL      0.278421
     25 C11         1.2480    6.5500   -0.7180 c3        1 MOL     -0.243341
     26 C12         2.2080    4.5650   -3.0850 c3        1 MOL     -0.458153
     27 H8         -1.2300    3.6720   -0.2200 hn        1 MOL      0.080792
     28 H9         -1.4460    6.5910   -0.8280 h1        1 MOL      0.128160
     29 H10         0.2410    6.4940   -2.6490 hc        1 MOL     -0.009293
     30 H11         0.2030    3.9860   -2.8670 hc        1 MOL     -0.021112
     31 H12         1.1200    3.8880   -1.4040 hc        1 MOL     -0.021112
     32 H13         1.6470    5.7390   -0.1010 hc        1 MOL      0.049374
     33 H14         2.0420    7.0530   -1.2660 hc        1 MOL      0.049374
     34 H15         0.6470    7.2540   -0.1400 hc        1 MOL      0.049374
     35 H16         3.0410    4.8360   -2.4370 hc        1 MOL      0.100467
     36 H17         2.5130    3.5500   -3.3640 hc        1 MOL      0.100467
     37 H18         2.0090    5.2130   -3.9450 hc        1 MOL      0.100467
     38 N3         -2.8150    4.1190   -2.2490 n         1 MOL     -0.418901
     39 C13        -3.7180    3.6630   -3.2720 c3        1 MOL      0.031185
     40 C14        -4.9970    2.9270   -2.8350 c         1 MOL      0.300099
     41 O6         -5.8110    2.5760   -3.7260 o         1 MOL     -0.500098
     42 C15        -2.9200    2.8030   -4.2250 c3        1 MOL     -0.177605
     43 C16        -2.3090    1.5670   -3.5090 c         1 MOL      0.788289
     44 O7         -2.7210    1.2920   -2.3630 o         1 MOL     -0.734120
     45 O8         -1.4560    0.8360   -4.0690 o         1 MOL     -0.734120
     46 H19        -2.6720    3.4310   -1.5180 hn        1 MOL      0.437223
     47 H20        -4.0570    4.4650   -3.9310 h1        1 MOL      0.101814
     48 H21        -2.1540    3.3950   -4.7250 hc        1 MOL      0.036304
     49 H22        -3.5830    2.5260   -5.0480 hc        1 MOL      0.036304
     50 N4         -5.3310    2.7350   -1.5580 n         1 MOL     -0.177809
     51 C17        -6.7220    2.3030   -1.2250 c3        1 MOL      0.161779
     52 C18        -7.3230    0.9620   -1.6650 c         1 MOL      0.351904
     53 O9         -8.3650    0.9320   -2.3060 o         1 MOL     -0.555399
     54 H23        -4.7380    2.9890   -0.7940 hn        1 MOL      0.128256
     55 H24        -7.4690    3.0490   -1.5080 h1        1 MOL      0.000821
     56 H25        -6.8450    2.3270   -0.1490 h1        1 MOL      0.000821
     57 N5         -6.5970   -0.0720   -1.3250 n         1 MOL     -0.136910
     58 C19        -6.9040   -1.4790   -1.7640 c3        1 MOL      0.005494
     59 C20        -7.1410   -2.5660   -0.6880 c         1 MOL      0.383241
     60 O10        -7.2530   -3.7160   -0.9460 o         1 MOL     -0.466873
     61 C21        -5.8260   -1.9600   -2.7300 c3        1 MOL     -0.107454
     62 C22        -4.3720   -1.9900   -2.2570 c         1 MOL      0.660694
     63 O11        -4.0700   -1.5360   -1.1020 o         1 MOL     -0.675069
     64 O12        -3.5540   -2.5620   -2.9750 o         1 MOL     -0.675069
     65 H26        -5.7160    0.0510   -0.8280 hn        1 MOL      0.072381
     66 H27        -7.8550   -1.4480   -2.2930 h1        1 MOL      0.085314
     67 H28        -5.9010   -1.2200   -3.5370 hc        1 MOL      0.051673
     68 H29        -6.0960   -2.9210   -3.1870 hc        1 MOL      0.051673
     69 N6         -7.2080   -2.0790    0.5750 n         1 MOL     -0.330246
     70 C23        -7.4560   -2.8410    1.8000 c3        1 MOL      0.085783
     71 C24        -6.2260   -3.6130    2.3090 c         1 MOL      0.427827
     72 O13        -6.3420   -4.5590    3.0690 o         1 MOL     -0.540868
     73 H30        -7.0980   -1.0900    0.7270 hn        1 MOL      0.229581
     74 H31        -8.3210   -3.5070    1.7850 h1        1 MOL      0.030228
     75 H32        -7.8060   -2.0480    2.4570 h1        1 MOL      0.030228
     76 N7         -5.0340   -3.3330    1.7320 n         1 MOL     -0.274839
     77 C25        -3.8510   -4.1410    1.8300 c3        1 MOL      0.019658
     78 C26        -2.5540   -3.3530    1.8470 c         1 MOL      0.547351
     79 O14        -2.5190   -2.2100    1.4030 o         1 MOL     -0.614236
     80 C27        -3.8310   -5.2650    0.7980 c3        1 MOL     -0.380338
     81 C28        -3.7410   -4.6960   -0.6730 c3        1 MOL     -0.014200
     82 C29        -3.6140   -5.7970   -1.6750 c         1 MOL      0.627302
     83 N8         -3.6970   -5.4600   -2.9870 n         1 MOL     -0.781403
     84 O15        -3.5450   -6.9600   -1.3870 o         1 MOL     -0.582583
     85 H33        -4.9030   -2.4950    1.1780 hn        1 MOL      0.224895
     86 H34        -3.9990   -4.6040    2.8090 h1        1 MOL      0.035258
     87 H35        -4.7540   -5.8340    0.8800 hc        1 MOL      0.143209
     88 H36        -3.0630   -6.0120    0.9810 hc        1 MOL      0.143209
     89 H37        -2.8830   -4.0220   -0.7700 hc        1 MOL      0.061142
     90 H38        -4.6260   -4.1240   -0.9530 hc        1 MOL      0.061142
     91 H39        -3.7620   -4.5100   -3.3270 hn        1 MOL      0.332740
     92 H40        -3.1840   -6.0090   -3.6600 hn        1 MOL      0.332740
     93 N9         -1.4880   -3.9410    2.3340 n         1 MOL     -0.339881
     94 C30        -0.1310   -3.2760    2.5390 c3        1 MOL      0.006963
     95 C31         0.8600   -3.6430    1.4660 c         1 MOL      0.548733
     96 O16         1.1060   -4.8270    1.3450 o         1 MOL     -0.586573
     97 C32         0.3610   -3.4280    4.0220 c3        1 MOL      0.170729
     98 C33         1.6070   -2.6490    4.2800 c3        1 MOL     -0.251118
     99 C34        -0.7030   -2.7510    4.9490 c3        1 MOL     -0.251118
    100 H41        -1.5360   -4.9020    2.6240 hn        1 MOL      0.244461
    101 H42        -0.3540   -2.2260    2.3800 h1        1 MOL      0.111001
    102 H43         0.5550   -4.4570    4.3160 hc        1 MOL     -0.012099
    103 H44         1.4180   -1.6030    4.0600 hc        1 MOL      0.057475
    104 H45         1.9070   -2.7150    5.3250 hc        1 MOL      0.057475
    105 H46         2.4120   -3.0190    3.6540 hc        1 MOL      0.057475
    106 H47        -0.8930   -1.7080    4.6830 hc        1 MOL      0.057475
    107 H48        -1.6440   -3.3010    4.8740 hc        1 MOL      0.057475
    108 H49        -0.3590   -2.8330    5.9760 hc        1 MOL      0.057475
    109 N10         1.4040   -2.6350    0.7650 n         1 MOL     -0.394988
    110 C35         2.5980   -2.7900   -0.1220 c3        1 MOL      0.491221
    111 C36         3.8820   -2.3750    0.6350 c         1 MOL      0.015601
    112 O17         3.7730   -1.8180    1.7210 o         1 MOL     -0.160213
    113 C37         2.3520   -2.0050   -1.3730 c3        1 MOL     -0.478134
    114 C38         3.4100   -2.2790   -2.5100 c         1 MOL      0.859803
    115 N11         3.4430   -3.4920   -3.0320 n         1 MOL     -0.825247
    116 O18         4.2060   -1.3950   -2.8690 o         1 MOL     -0.633058
    117 H50         1.0780   -1.6890    0.8920 hn        1 MOL      0.166793
    118 H51         2.7170   -3.8540   -0.3500 h1        1 MOL     -0.033431
    119 H52         2.1250   -0.9720   -1.1250 hc        1 MOL      0.119171
    120 H53         1.4000   -2.3810   -1.7610 hc        1 MOL      0.119171
    121 H54         2.9120   -4.2640   -2.6520 hn        1 MOL      0.360491
    122 H55         4.1810   -3.6550   -3.6970 hn        1 MOL      0.360491
    123 N12         5.1430   -2.6940    0.1380 n         1 MOL     -0.190770
    124 C39         6.3390   -2.4740    0.8500 c3        1 MOL      0.143590
    125 C40         6.6270   -0.9410    0.9090 c         1 MOL      0.488840
    126 O19         7.1480   -0.4580    1.9010 o         1 MOL     -0.583149
    127 C41         7.5150   -3.2510    0.2500 c3        1 MOL     -0.221799
    128 C42         7.5460   -3.3370   -1.2760 ca        1 MOL     -0.016249
    129 C43         6.9200   -4.3740   -1.9440 ca        1 MOL     -0.090707
    130 C44         8.1820   -2.3150   -1.9680 ca        1 MOL     -0.090707
    131 C45         6.9490   -4.4660   -3.3140 ca        1 MOL     -0.284816
    132 C46         8.1270   -2.2790   -3.3580 ca        1 MOL     -0.284816
    133 C47         7.5050   -3.3670   -4.0550 ca        1 MOL      0.378843
    134 O20         7.5540   -3.5230   -5.4310 oh        1 MOL     -0.575886
    135 H56         5.1860   -3.1410   -0.7670 hn        1 MOL      0.091818
    136 H57         6.3040   -2.7640    1.9020 h1        1 MOL      0.048897
    137 H58         7.5890   -4.2260    0.7350 hc        1 MOL      0.084682
    138 H59         8.4700   -2.8180    0.5350 hc        1 MOL      0.084682
    139 H60         6.4510   -5.1670   -1.3760 ha        1 MOL      0.121239
    140 H61         8.7880   -1.5970   -1.4460 ha        1 MOL      0.121239
    141 H62         6.4450   -5.3050   -3.7570 ha        1 MOL      0.153316
    142 H63         8.6470   -1.4900   -3.8790 ha        1 MOL      0.153316
    143 H64         7.8190   -2.6810   -5.7970 ho        1 MOL      0.420040
    144 N13         6.2810   -0.1440   -0.1590 n         1 MOL     -0.229488
    145 C48         6.4300    1.3320   -0.1760 c3        1 MOL     -0.285659
    146 C49         5.4490    1.9940    0.8910 c         1 MOL      0.607028
    147 O21         5.6630    3.2030    1.1580 o         1 MOL     -0.524890
    148 C50         6.1040    1.8870   -1.6150 c3        1 MOL     -0.070070
    149 C51         6.8520    3.1990   -1.8790 c3        1 MOL     -0.152404
    150 C52         8.4010    3.1770   -1.6150 c         1 MOL      0.582099
    151 O22         9.0390    2.1250   -1.8310 o         1 MOL     -0.691299
    152 O23         8.9580    4.1690   -1.1100 o         1 MOL     -0.691299
    153 H65         6.0350   -0.4910   -1.0830 hn        1 MOL      0.285870
    154 H66         7.4470    1.5370    0.1700 h1        1 MOL      0.243473
    155 H67         5.0430    2.1200   -1.6380 hc        1 MOL      0.063966
    156 H68         6.4790    1.2050   -2.3780 hc        1 MOL      0.063966
    157 H69         6.3130    3.8400   -1.1710 hc        1 MOL      0.021880
    158 H70         6.5630    3.6630   -2.8250 hc        1 MOL      0.021880
    159 N14         4.5570    1.2070    1.5260 n         1 MOL     -0.307873
    160 C53         3.6440    1.6570    2.6250 c3        1 MOL      0.062464
    161 C54         3.9240    1.0710    4.0370 c         1 MOL      0.403642
    162 O24         3.8970    1.8320    4.9510 o         1 MOL     -0.541074
    163 C55         2.2090    1.2790    2.2510 c3        1 MOL     -0.062147
    164 C56         1.7200    1.7410    0.8930 c3        1 MOL      0.040930
    165 C57         0.2930    1.1510    0.5960 c         1 MOL      0.822960
    166 O25        -0.4750    1.7760   -0.1840 o         1 MOL     -0.789745
    167 O26        -0.1410    0.0600    1.0510 o         1 MOL     -0.789745
    168 H71         4.5330    0.2250    1.3050 hn        1 MOL      0.062369
    169 H72         3.6740    2.7430    2.6810 h1        1 MOL      0.041635
    170 H73         1.5040    1.7420    2.9480 hc        1 MOL      0.020998
    171 H74         2.0740    0.2140    2.4550 hc        1 MOL      0.020998
    172 H75         2.4550    1.6120    0.1010 hc        1 MOL      0.016534
    173 H76         1.5810    2.8160    0.7820 hc        1 MOL      0.016534
    174 N15         4.4900   -0.1180    4.0970 n         1 MOL      0.028575
    175 C58         4.8840   -0.8440    5.2840 c3        1 MOL     -0.130999
    176 H77         4.9530   -1.9060    5.0530 h1        1 MOL      0.055031
    177 H78         5.8540   -0.4820    5.6260 h1        1 MOL      0.055031
    178 H79         4.1410   -0.6900    6.0670 h1        1 MOL      0.055031
    179 H80         4.3010   -0.5810    3.2270 hn        1 MOL     -0.021419
    180 Ca1        -2.5040    0.0920   -0.0560 Ca        1 MOL      1.776907
    181 O27        -2.6280    0.6310    2.8530 oh        1 MOL     -0.862036
    182 H81        -1.9520    1.2490    3.1290 ho        1 MOL      0.414561
    183 H82        -2.8170    0.1100    3.6330 ho        1 MOL      0.414561
    184 O28        -1.2700   -1.2900   -2.1340 oh        1 MOL     -0.862036
    185 H83        -1.9830   -1.8290   -2.4640 ho        1 MOL      0.414561
    186 H84        -1.0720   -0.6770   -2.8490 ho        1 MOL      0.414561
    187 O29        -4.9860    0.5500    1.1680 oh        1 MOL     -0.862036
    188 H85        -4.7310    0.3540    2.0690 ho        1 MOL      0.414561
    189 H86        -5.2190    1.4830    1.1920 ho        1 MOL      0.414561
@<TRIPOS>BOND
     1    1    2 1   
     2    1    4 1   
     3    1    5 1   
     4    1    6 1   
     5    2    3 2   
     6    2    7 1   
     7    7    8 1   
     8    7   15 1   
     9    8    9 1   
    10    8   11 1   
    11    8   16 1   
    12    9   10 2   
    13    9   19 1   
    14   11   12 1   
    15   11   17 1   
    16   11   18 1   
    17   12   13 1   
    18   12   14 1   
    19   19   20 1   
    20   19   27 1   
    21   20   21 1   
    22   20   23 1   
    23   20   28 1   
    24   21   22 2   
    25   21   38 1   
    26   23   24 1   
    27   23   25 1   
    28   23   29 1   
    29   24   26 1   
    30   24   30 1   
    31   24   31 1   
    32   25   32 1   
    33   25   33 1   
    34   25   34 1   
    35   26   35 1   
    36   26   36 1   
    37   26   37 1   
    38   38   39 1   
    39   38   46 1   
    40   39   40 1   
    41   39   42 1   
    42   39   47 1   
    43   40   41 2   
    44   40   50 1   
    45   42   43 1   
    46   42   48 1   
    47   42   49 1   
    48   43   44 1   
    49   43   45 1   
    50   50   51 1   
    51   50   54 1   
    52   51   52 1   
    53   51   55 1   
    54   51   56 1   
    55   52   53 2   
    56   52   57 1   
    57   57   58 1   
    58   57   65 1   
    59   58   59 1   
    60   58   61 1   
    61   58   66 1   
    62   59   60 2   
    63   59   69 1   
    64   61   62 1   
    65   61   67 1   
    66   61   68 1   
    67   62   63 1   
    68   62   64 1   
    69   69   70 1   
    70   69   73 1   
    71   70   71 1   
    72   70   74 1   
    73   70   75 1   
    74   71   72 2   
    75   71   76 1   
    76   76   77 1   
    77   76   85 1   
    78   77   78 1   
    79   77   80 1   
    80   77   86 1   
    81   78   79 2   
    82   78   93 1   
    83   80   81 1   
    84   80   87 1   
    85   80   88 1   
    86   81   82 1   
    87   81   89 1   
    88   81   90 1   
    89   82   83 1   
    90   82   84 2   
    91   83   91 1   
    92   83   92 1   
    93   93   94 1   
    94   93  100 1   
    95   94   95 1   
    96   94   97 1   
    97   94  101 1   
    98   95   96 2   
    99   95  109 1   
   100   97   98 1   
   101   97   99 1   
   102   97  102 1   
   103   98  103 1   
   104   98  104 1   
   105   98  105 1   
   106   99  106 1   
   107   99  107 1   
   108   99  108 1   
   109  109  110 1   
   110  109  117 1   
   111  110  111 1   
   112  110  113 1   
   113  110  118 1   
   114  111  112 2   
   115  111  123 1   
   116  113  114 1   
   117  113  119 1   
   118  113  120 1   
   119  114  115 1   
   120  114  116 2   
   121  115  121 1   
   122  115  122 1   
   123  123  124 1   
   124  123  135 1   
   125  124  125 1   
   126  124  127 1   
   127  124  136 1   
   128  125  126 2   
   129  125  144 1   
   130  127  128 1   
   131  127  137 1   
   132  127  138 1   
   133  128  129 ar  
   134  128  130 ar  
   135  129  131 ar  
   136  129  139 1   
   137  130  132 ar  
   138  130  140 1   
   139  131  133 ar  
   140  131  141 1   
   141  132  133 ar  
   142  132  142 1   
   143  133  134 1   
   144  134  143 1   
   145  144  145 1   
   146  144  153 1   
   147  145  146 1   
   148  145  148 1   
   149  145  154 1   
   150  146  147 2   
   151  146  159 1   
   152  148  149 1   
   153  148  155 1   
   154  148  156 1   
   155  149  150 1   
   156  149  157 1   
   157  149  158 1   
   158  150  151 1   
   159  150  152 1   
   160  159  160 1   
   161  159  168 1   
   162  160  161 1   
   163  160  163 1   
   164  160  169 1   
   165  161  162 2   
   166  161  174 1   
   167  163  164 1   
   168  163  170 1   
   169  163  171 1   
   170  164  165 1   
   171  164  172 1   
   172  164  173 1   
   173  165  166 1   
   174  165  167 1   
   175  174  175 1   
   176  174  179 1   
   177  175  176 1   
   178  175  177 1   
   179  175  178 1   
   180  181  182 1   
   181  181  183 1   
   182  184  185 1   
   183  184  186 1   
   184  187  188 1   
   185  187  189 1   
@<TRIPOS>SUBSTRUCTURE
     1 MOL         1 TEMP              0 ****  ****    0 ROOT
