@<TRIPOS>MOLECULE
MOL
  189   185     1     0     0
SMALL
resp


@<TRIPOS>ATOM
      1 C1          0.1270   -3.8600    6.1930 c3        1 MOL     -0.338900
      2 C2          0.5940   -3.3440    4.8200 c         1 MOL      0.769159
      3 O1          0.8410   -2.1260    4.6490 o         1 MOL     -0.632292
      4 H1          0.3680   -3.1230    6.9580 hc        1 MOL      0.085148
      5 H2         -0.9500   -4.0240    6.1730 hc        1 MOL      0.085148
      6 H3          0.6340   -4.7970    6.4200 hc        1 MOL      0.085148
      7 N1          0.8030   -4.2270    3.8530 n         1 MOL     -0.684415
      8 C3          1.4390   -3.9860    2.5370 c3        1 MOL      0.410413
      9 C4          1.1110   -5.0350    1.5170 c         1 MOL      0.331546
     10 O2          0.8230   -6.2030    1.8000 o         1 MOL     -0.581108
     11 C5          3.0110   -3.9750    2.8140 c3        1 MOL     -0.269616
     12 C6          3.9080   -3.8090    1.5240 c         1 MOL      0.640271
     13 O3          4.8490   -4.6410    1.2730 o         1 MOL     -0.647687
     14 O4          3.5560   -2.9690    0.6810 o         1 MOL     -0.647687
     15 H4          0.7580   -5.1930    4.1160 hn        1 MOL      0.318655
     16 H5          1.0560   -3.0220    2.2100 h1        1 MOL     -0.045661
     17 H6          3.2040   -4.9810    3.1960 hc        1 MOL      0.041505
     18 H7          3.2190   -3.2270    3.5700 hc        1 MOL      0.041505
     19 N2          1.1410   -4.6390    0.2840 n         1 MOL      0.050521
     20 C7          0.9200   -5.4300   -0.8890 c3        1 MOL     -0.114413
     21 C8          1.9120   -5.2280   -2.1260 c         1 MOL      0.447223
     22 O5          1.6630   -5.7790   -3.1950 o         1 MOL     -0.528531
     23 C9         -0.6210   -5.4530   -1.2770 c3        1 MOL      0.291336
     24 C10        -1.6450   -4.9170   -0.1880 c3        1 MOL     -0.178385
     25 C11        -1.0920   -6.8960   -1.6180 c3        1 MOL     -0.155977
     26 C12        -3.1640   -5.0380   -0.4640 c3        1 MOL     -0.091811
     27 H8          1.0960   -3.6550    0.0590 hn        1 MOL      0.191295
     28 H9          1.1340   -6.4510   -0.5910 h1        1 MOL      0.065994
     29 H10        -0.7560   -4.8440   -2.1550 hc        1 MOL     -0.030889
     30 H11        -1.4710   -3.8550   -0.0240 hc        1 MOL      0.048212
     31 H12        -1.4900   -5.5000    0.7230 hc        1 MOL      0.048212
     32 H13        -2.1230   -6.9260   -1.9650 hc        1 MOL      0.011066
     33 H14        -0.5190   -7.2240   -2.4790 hc        1 MOL      0.011066
     34 H15        -0.9090   -7.5130   -0.7380 hc        1 MOL      0.011066
     35 H16        -3.6950   -4.2930    0.1230 hc        1 MOL      0.033539
     36 H17        -3.4310   -4.8580   -1.5090 hc        1 MOL      0.033539
     37 H18        -3.5810   -5.9920   -0.1380 hc        1 MOL      0.033539
     38 N3          2.9670   -4.4030   -1.9920 n         1 MOL     -0.255104
     39 C13         3.8560   -4.0430   -3.1360 c3        1 MOL      0.004750
     40 C14         5.2690   -3.5470   -2.7470 c         1 MOL      0.314336
     41 O6          6.2610   -3.4310   -3.5240 o         1 MOL     -0.547254
     42 C15         3.1600   -2.8930   -3.9730 c3        1 MOL     -0.209050
     43 C16         2.6160   -1.7280   -3.1450 c         1 MOL      0.728961
     44 O7          3.2760   -1.1690   -2.2130 o         1 MOL     -0.662971
     45 O8          1.6150   -1.1690   -3.5940 o         1 MOL     -0.662971
     46 H19         3.0630   -3.8940   -1.1260 hn        1 MOL      0.055038
     47 H20         3.9930   -4.8950   -3.8010 h1        1 MOL      0.097589
     48 H21         2.3790   -3.3200   -4.6030 hc        1 MOL      0.065444
     49 H22         3.9820   -2.5010   -4.5650 hc        1 MOL      0.065444
     50 N4          5.4350   -3.2170   -1.4740 n         1 MOL      0.018281
     51 C17         6.6850   -2.6620   -0.9110 c3        1 MOL     -0.422297
     52 C18         7.1670   -1.3690   -1.4350 c         1 MOL      0.624287
     53 O9          8.3650   -1.1370   -1.4380 o         1 MOL     -0.624564
     54 H23         4.6420   -3.2280   -0.8410 hn        1 MOL      0.113466
     55 H24         7.4900   -3.3550   -1.1510 h1        1 MOL      0.152071
     56 H25         6.6120   -2.5000    0.1670 h1        1 MOL      0.152071
     57 N5          6.2670   -0.4610   -1.9030 n         1 MOL     -0.220398
     58 C19         6.6640    0.8710   -2.3180 c3        1 MOL     -0.054882
     59 C20         7.2670    1.7450   -1.1780 c         1 MOL      0.494152
     60 O10         7.7110    2.8100   -1.5500 o         1 MOL     -0.559710
     61 C21         5.5420    1.5950   -3.0730 c3        1 MOL     -0.083010
     62 C22         4.2960    1.6680   -2.3390 c         1 MOL      0.787654
     63 O11         4.2020    1.3070   -1.1250 o         1 MOL     -0.720801
     64 O12         3.3070    2.1690   -2.9180 o         1 MOL     -0.720801
     65 H26         5.2690   -0.6390   -1.9500 hn        1 MOL      0.169739
     66 H27         7.4210    0.8100   -3.0920 h1        1 MOL      0.075053
     67 H28         5.4780    1.1570   -4.0710 hc        1 MOL      0.038431
     68 H29         5.8940    2.6140   -3.2570 hc        1 MOL      0.038431
     69 N6          7.1500    1.4910    0.0980 n         1 MOL     -0.350062
     70 C23         7.3970    2.5800    1.1380 c3        1 MOL     -0.087417
     71 C24         6.2400    3.5910    1.2980 c         1 MOL      0.430764
     72 O13         6.4810    4.6280    1.9300 o         1 MOL     -0.595807
     73 H30         6.7580    0.6160    0.4260 hn        1 MOL      0.246340
     74 H31         8.2560    3.1870    0.8240 h1        1 MOL      0.085571
     75 H32         7.7410    2.0690    2.0340 h1        1 MOL      0.085571
     76 N7          5.0770    3.3710    0.8010 n         1 MOL     -0.162581
     77 C25         3.7930    4.1500    1.0650 c3        1 MOL      0.005726
     78 C26         2.6150    3.2690    1.4850 c         1 MOL      0.387864
     79 O14         2.6480    2.0460    1.3030 o         1 MOL     -0.522594
     80 C27         3.4910    5.1610    0.0160 c3        1 MOL     -0.100433
     81 C28         4.6650    6.1330   -0.3350 c3        1 MOL     -0.291502
     82 C29         4.2640    7.1790   -1.3560 c         1 MOL      0.703713
     83 N8          5.1670    8.0990   -1.7580 n         1 MOL     -0.827965
     84 O15         3.1590    7.1920   -1.8610 o         1 MOL     -0.555216
     85 H33         4.9640    2.6170    0.1470 hn        1 MOL      0.180425
     86 H34         3.9710    4.7650    1.9480 h1        1 MOL      0.038730
     87 H35         2.5570    5.6830    0.2220 hc        1 MOL      0.088750
     88 H36         3.2080    4.5900   -0.8700 hc        1 MOL      0.088750
     89 H37         5.4740    5.5780   -0.8010 hc        1 MOL      0.126008
     90 H38         4.9380    6.7430    0.5290 hc        1 MOL      0.126008
     91 H39         6.0980    8.1850   -1.3960 hn        1 MOL      0.346504
     92 H40         4.8710    8.8500   -2.3620 hn        1 MOL      0.346504
     93 N9          1.4840    3.8310    1.9480 n         1 MOL     -0.363356
     94 C30         0.2490    3.1010    2.2870 c3        1 MOL      0.080820
     95 C31        -0.7860    3.4140    1.2340 c         1 MOL      0.496081
     96 O16        -1.2120    4.5940    1.2080 o         1 MOL     -0.609446
     97 C32        -0.2580    3.6930    3.6600 c3        1 MOL      0.396681
     98 C33        -1.6190    3.1040    4.1040 c3        1 MOL     -0.301119
     99 C34         0.7810    3.3390    4.7710 c3        1 MOL     -0.301119
    100 H41         1.4370    4.8440    1.9290 hn        1 MOL      0.243026
    101 H42         0.4410    2.0330    2.4140 h1        1 MOL      0.086405
    102 H43        -0.3650    4.7730    3.6260 hc        1 MOL     -0.061070
    103 H44        -2.3400    3.1810    3.2910 hc        1 MOL      0.046618
    104 H45        -1.3430    2.0700    4.3320 hc        1 MOL      0.046618
    105 H46        -1.9860    3.6850    4.9440 hc        1 MOL      0.046618
    106 H47         1.2420    2.3560    4.6720 hc        1 MOL      0.046618
    107 H48         1.5500    4.0970    4.6440 hc        1 MOL      0.046618
    108 H49         0.3810    3.6100    5.7500 hc        1 MOL      0.046618
    109 N10        -1.2180    2.4810    0.4000 n         1 MOL     -0.349246
    110 C35        -2.4030    2.5880   -0.4880 c3        1 MOL      0.063347
    111 C36        -3.6920    2.6800    0.3840 c         1 MOL      0.096480
    112 O17        -3.7470    2.0810    1.4210 o         1 MOL     -0.147677
    113 C37        -2.3280    1.5550   -1.5110 c3        1 MOL     -0.224496
    114 C38        -3.3910    1.5610   -2.5830 c         1 MOL      0.678592
    115 N11        -3.4240    2.5200   -3.5020 n         1 MOL     -0.692484
    116 O18        -4.2870    0.7690   -2.6260 o         1 MOL     -0.523150
    117 H50        -0.8560    1.5330    0.4490 hn        1 MOL      0.291532
    118 H51        -2.3010    3.5200   -1.0350 h1        1 MOL      0.063681
    119 H52        -2.3000    0.5660   -1.0580 hc        1 MOL      0.105701
    120 H53        -1.4050    1.5910   -2.0940 hc        1 MOL      0.105701
    121 H54        -2.7790    3.2850   -3.3790 hn        1 MOL      0.301506
    122 H55        -4.1580    2.6230   -4.1810 hn        1 MOL      0.301506
    123 N12        -4.7940    3.0570   -0.2640 n         1 MOL     -0.040588
    124 C39        -6.1530    2.9660    0.2540 c3        1 MOL      0.057420
    125 C40        -6.5900    1.5300    0.5230 c         1 MOL      0.357681
    126 O19        -7.4510    1.3240    1.4060 o         1 MOL     -0.554485
    127 C41        -7.0740    3.7350   -0.7260 c3        1 MOL     -0.193422
    128 C42        -7.4380    2.9570   -2.0030 ca        1 MOL      0.350219
    129 C43        -6.8240    3.2840   -3.2210 ca        1 MOL     -0.484521
    130 C44        -8.4810    2.0110   -1.9650 ca        1 MOL     -0.484521
    131 C45        -7.1050    2.5290   -4.4050 ca        1 MOL      0.021378
    132 C46        -8.7340    1.2320   -3.1030 ca        1 MOL      0.021378
    133 C47        -8.0850    1.5160   -4.3430 ca        1 MOL      0.089368
    134 O20        -8.2570    0.7380   -5.4290 oh        1 MOL     -0.528727
    135 H56        -4.6280    3.6130   -1.0910 hn        1 MOL      0.099555
    136 H57        -6.1800    3.3790    1.2610 h1        1 MOL      0.038650
    137 H58        -6.7100    4.7260   -0.9990 hc        1 MOL      0.050096
    138 H59        -7.9790    3.8910   -0.1390 hc        1 MOL      0.050096
    139 H60        -5.9410    3.8970   -3.1400 ha        1 MOL      0.209637
    140 H61        -8.9550    1.6920   -1.0510 ha        1 MOL      0.209637
    141 H62        -6.5990    2.8150   -5.3180 ha        1 MOL      0.087803
    142 H63        -9.3610    0.3570   -3.1560 ha        1 MOL      0.087803
    143 H64        -8.9400    0.0760   -5.3060 ho        1 MOL      0.429084
    144 N13        -6.0840    0.5200   -0.1750 n         1 MOL      0.179204
    145 C48        -6.3740   -0.7830    0.2660 c3        1 MOL     -0.253763
    146 C49        -5.5810   -1.2570    1.5100 c         1 MOL      0.465268
    147 O21        -5.9440   -2.3110    2.0870 o         1 MOL     -0.541825
    148 C50        -5.9530   -1.8460   -0.8390 c3        1 MOL      0.387309
    149 C51        -6.7440   -1.8590   -2.0940 c3        1 MOL     -0.290518
    150 C52        -8.1460   -2.3850   -1.8470 c         1 MOL      0.640579
    151 O22        -9.1050   -1.5900   -1.6830 o         1 MOL     -0.704962
    152 O23        -8.2680   -3.6110   -1.7300 o         1 MOL     -0.704962
    153 H65        -5.3620    0.6460   -0.8680 hn        1 MOL      0.014138
    154 H66        -7.3990   -0.9800    0.5620 h1        1 MOL      0.156514
    155 H67        -5.9190   -2.8540   -0.4300 hc        1 MOL     -0.070998
    156 H68        -4.9460   -1.6440   -1.1930 hc        1 MOL     -0.070998
    157 H69        -6.2230   -2.5330   -2.7600 hc        1 MOL      0.045744
    158 H70        -6.8380   -0.8770   -2.5710 hc        1 MOL      0.045744
    159 N14        -4.5310   -0.5690    1.8930 n         1 MOL     -0.381648
    160 C53        -3.6100   -0.8930    2.9880 c3        1 MOL      0.142619
    161 C54        -3.9150   -0.1210    4.3160 c         1 MOL      0.446720
    162 O24        -4.0400   -0.6570    5.4100 o         1 MOL     -0.567246
    163 C55        -2.1060   -0.6180    2.5710 c3        1 MOL     -0.164672
    164 C56        -1.7370   -1.6010    1.4260 c3        1 MOL      0.051747
    165 C57        -0.3840   -1.1170    0.8320 c         1 MOL      0.927745
    166 O25         0.3990   -1.9080    0.2950 o         1 MOL     -0.832359
    167 O26         0.0280    0.0830    0.8100 o         1 MOL     -0.832359
    168 H71        -4.3000    0.1910    1.2770 hn        1 MOL      0.134497
    169 H72        -3.7480   -1.9470    3.2680 h1        1 MOL      0.047998
    170 H73        -1.4300   -0.7690    3.4130 hc        1 MOL      0.036670
    171 H74        -2.0480    0.4050    2.1980 hc        1 MOL      0.036670
    172 H75        -2.4160   -1.5230    0.5830 hc        1 MOL     -0.010246
    173 H76        -1.6770   -2.6530    1.7180 hc        1 MOL     -0.010246
    174 N15        -4.2660    1.1630    4.1470 n         1 MOL     -0.016539
    175 C58        -4.8900    2.0880    5.1260 c3        1 MOL     -0.287313
    176 H77        -4.1140    2.5380    5.7440 h1        1 MOL      0.100429
    177 H78        -5.4300    2.8710    4.5940 h1        1 MOL      0.100429
    178 H79        -5.5820    1.5330    5.7600 h1        1 MOL      0.100429
    179 H80        -4.1620    1.5980    3.2390 hn        1 MOL      0.011283
    180 Ca1         2.6580   -0.3610    0.2140 Ca        1 MOL      1.709330
    181 O27         2.4660   -0.5690    2.9570 oh        1 MOL     -0.852149
    182 O28         0.9940    0.8430   -1.9510 oh        1 MOL     -0.852149
    183 H81         1.9610   -1.1650    3.5210 ho        1 MOL      0.407020
    184 H82         1.1110    0.1720   -2.6270 ho        1 MOL      0.407020
    185 H83         2.8530    0.0510    3.5610 ho        1 MOL      0.407020
    186 H84         1.6840    1.4870   -2.1180 ho        1 MOL      0.407020
    187 O29         4.9060    0.0150    1.6350 oh        1 MOL     -0.852149
    188 H85         5.8330   -0.1790    1.8220 ho        1 MOL      0.407020
    189 H86         4.5950    0.4460    2.4350 ho        1 MOL      0.407020
@<TRIPOS>BOND
     1    1    2 1   
     2    1    4 1   
     3    1    5 1   
     4    1    6 1   
     5    2    3 2   
     6    2    7 1   
     7    7    8 1   
     8    7   15 1   
     9    8    9 1   
    10    8   11 1   
    11    8   16 1   
    12    9   10 2   
    13    9   19 1   
    14   11   12 1   
    15   11   17 1   
    16   11   18 1   
    17   12   13 1   
    18   12   14 1   
    19   19   20 1   
    20   19   27 1   
    21   20   21 1   
    22   20   23 1   
    23   20   28 1   
    24   21   22 2   
    25   21   38 1   
    26   23   24 1   
    27   23   25 1   
    28   23   29 1   
    29   24   26 1   
    30   24   30 1   
    31   24   31 1   
    32   25   32 1   
    33   25   33 1   
    34   25   34 1   
    35   26   35 1   
    36   26   36 1   
    37   26   37 1   
    38   38   39 1   
    39   38   46 1   
    40   39   40 1   
    41   39   42 1   
    42   39   47 1   
    43   40   41 2   
    44   40   50 1   
    45   42   43 1   
    46   42   48 1   
    47   42   49 1   
    48   43   44 1   
    49   43   45 1   
    50   50   51 1   
    51   50   54 1   
    52   51   52 1   
    53   51   55 1   
    54   51   56 1   
    55   52   53 2   
    56   52   57 1   
    57   57   58 1   
    58   57   65 1   
    59   58   59 1   
    60   58   61 1   
    61   58   66 1   
    62   59   60 2   
    63   59   69 1   
    64   61   62 1   
    65   61   67 1   
    66   61   68 1   
    67   62   63 1   
    68   62   64 1   
    69   69   70 1   
    70   69   73 1   
    71   70   71 1   
    72   70   74 1   
    73   70   75 1   
    74   71   72 2   
    75   71   76 1   
    76   76   77 1   
    77   76   85 1   
    78   77   78 1   
    79   77   80 1   
    80   77   86 1   
    81   78   79 2   
    82   78   93 1   
    83   80   81 1   
    84   80   87 1   
    85   80   88 1   
    86   81   82 1   
    87   81   89 1   
    88   81   90 1   
    89   82   83 1   
    90   82   84 2   
    91   83   91 1   
    92   83   92 1   
    93   93   94 1   
    94   93  100 1   
    95   94   95 1   
    96   94   97 1   
    97   94  101 1   
    98   95   96 2   
    99   95  109 1   
   100   97   98 1   
   101   97   99 1   
   102   97  102 1   
   103   98  103 1   
   104   98  104 1   
   105   98  105 1   
   106   99  106 1   
   107   99  107 1   
   108   99  108 1   
   109  109  110 1   
   110  109  117 1   
   111  110  111 1   
   112  110  113 1   
   113  110  118 1   
   114  111  112 2   
   115  111  123 1   
   116  113  114 1   
   117  113  119 1   
   118  113  120 1   
   119  114  115 1   
   120  114  116 2   
   121  115  121 1   
   122  115  122 1   
   123  123  124 1   
   124  123  135 1   
   125  124  125 1   
   126  124  127 1   
   127  124  136 1   
   128  125  126 2   
   129  125  144 1   
   130  127  128 1   
   131  127  137 1   
   132  127  138 1   
   133  128  129 ar  
   134  128  130 ar  
   135  129  131 ar  
   136  129  139 1   
   137  130  132 ar  
   138  130  140 1   
   139  131  133 ar  
   140  131  141 1   
   141  132  133 ar  
   142  132  142 1   
   143  133  134 1   
   144  134  143 1   
   145  144  145 1   
   146  144  153 1   
   147  145  146 1   
   148  145  148 1   
   149  145  154 1   
   150  146  147 2   
   151  146  159 1   
   152  148  149 1   
   153  148  155 1   
   154  148  156 1   
   155  149  150 1   
   156  149  157 1   
   157  149  158 1   
   158  150  151 1   
   159  150  152 1   
   160  159  160 1   
   161  159  168 1   
   162  160  161 1   
   163  160  163 1   
   164  160  169 1   
   165  161  162 2   
   166  161  174 1   
   167  163  164 1   
   168  163  170 1   
   169  163  171 1   
   170  164  165 1   
   171  164  172 1   
   172  164  173 1   
   173  165  166 1   
   174  165  167 1   
   175  174  175 1   
   176  174  179 1   
   177  175  176 1   
   178  175  177 1   
   179  175  178 1   
   180  181  183 1   
   181  181  185 1   
   182  182  184 1   
   183  182  186 1   
   184  187  188 1   
   185  187  189 1   
@<TRIPOS>SUBSTRUCTURE
     1 MOL         1 TEMP              0 ****  ****    0 ROOT
