@<TRIPOS>MOLECULE
MOL
  175   173     1     0     0
SMALL
resp


@<TRIPOS>ATOM
      1 C1          0.2520    3.7720    5.5150 c3        1 MOL     -0.392353
      2 C2         -0.3440    3.8230    4.0510 c         1 MOL      0.771200
      3 O1          0.4380    3.8930    3.1040 o         1 MOL     -0.535648
      4 H1         -0.4100    4.3070    6.1960 hc        1 MOL      0.088373
      5 H2          0.3400    2.7340    5.8350 hc        1 MOL      0.088373
      6 H3          1.2370    4.2390    5.5230 hc        1 MOL      0.088373
      7 N1         -1.7090    3.7100    3.9470 n         1 MOL     -0.794055
      8 C3         -2.2450    3.4480    2.6020 c3        1 MOL      0.266164
      9 C4         -2.2440    4.7730    1.7510 c         1 MOL      0.471799
     10 O2         -2.3790    5.8540    2.3180 o         1 MOL     -0.554645
     11 C5         -3.7130    2.9250    2.8090 c3        1 MOL     -0.160839
     12 C6         -4.3140    2.7520    1.4520 c         1 MOL      0.653653
     13 O3         -3.6960    2.1450    0.5320 o         1 MOL     -0.629809
     14 O4         -5.5020    3.0990    1.2930 o         1 MOL     -0.629809
     15 H4         -2.2780    3.8730    4.7710 hn        1 MOL      0.377609
     16 H5         -1.7790    2.5800    2.1410 h1        1 MOL      0.022939
     17 H6         -4.3290    3.5670    3.4480 hc        1 MOL      0.021816
     18 H7         -3.6840    1.9660    3.3260 hc        1 MOL      0.021816
     19 N2         -2.1650    4.6000    0.4470 n         1 MOL     -0.351269
     20 C7         -2.3210    5.4930   -0.6530 c3        1 MOL      0.301930
     21 C8         -3.2790    5.0240   -1.8400 c         1 MOL      0.438648
     22 O5         -3.3360    5.7360   -2.8060 o         1 MOL     -0.558689
     23 C9         -0.8930    5.9530   -1.1170 c3        1 MOL     -0.222617
     24 H8         -1.8320    3.6830    0.1950 hn        1 MOL      0.243240
     25 H9         -2.7640    6.3520   -0.1570 h1        1 MOL     -0.010778
     26 H10        -1.0280    6.7610   -1.8340 hc        1 MOL      0.049862
     27 H11        -0.3890    6.4940   -0.3110 hc        1 MOL      0.049862
     28 H12        -0.2900    5.1120   -1.4560 hc        1 MOL      0.049862
     29 N3         -4.0290    3.8920   -1.7590 n         1 MOL     -0.341389
     30 C10        -4.6840    3.3640   -2.9910 c3        1 MOL      0.130308
     31 C11        -5.9830    2.5930   -2.6260 c         1 MOL      0.321729
     32 O6         -6.8250    2.3310   -3.4510 o         1 MOL     -0.562369
     33 C12        -3.7090    2.3740   -3.7380 c3        1 MOL     -0.246875
     34 C13        -3.0360    1.4540   -2.7590 c         1 MOL      0.796685
     35 O7         -1.8280    1.1420   -2.9200 o         1 MOL     -0.736411
     36 O8         -3.7240    0.8410   -1.9440 o         1 MOL     -0.736411
     37 H13        -3.8700    3.3430   -0.9190 hn        1 MOL      0.133280
     38 H14        -4.9760    4.1850   -3.6410 h1        1 MOL      0.086619
     39 H15        -3.0110    2.9690   -4.3290 hc        1 MOL      0.065435
     40 H16        -4.2520    1.7720   -4.4720 hc        1 MOL      0.065435
     41 N4         -6.2700    2.1380   -1.3920 n         1 MOL     -0.018675
     42 C14        -7.4030    1.3650   -1.0110 c3        1 MOL     -0.095350
     43 C15        -7.4290   -0.1530   -1.3900 c         1 MOL      0.411770
     44 O9         -8.4370   -0.8480   -1.1960 o         1 MOL     -0.593291
     45 H17        -5.6180    2.3420   -0.6540 hn        1 MOL      0.012281
     46 H18        -8.3160    1.8750   -1.2890 h1        1 MOL      0.076226
     47 H19        -7.4750    1.3930    0.0710 h1        1 MOL      0.076226
     48 N5         -6.3010   -0.7090   -1.7630 n         1 MOL     -0.267867
     49 C16        -6.2430   -2.1070   -2.3790 c3        1 MOL      0.072419
     50 C17        -6.3500   -3.2680   -1.3220 c         1 MOL      0.426756
     51 O10        -6.3500   -4.4210   -1.7370 o         1 MOL     -0.524563
     52 C18        -4.9200   -2.2600   -3.2240 c3        1 MOL     -0.342059
     53 C19        -3.6530   -2.3500   -2.4840 c         1 MOL      0.785882
     54 N6         -2.5940   -2.3850   -3.2080 n         1 MOL     -0.746170
     55 O11        -3.5090   -2.1290   -1.2670 o         1 MOL     -0.625991
     56 H20        -5.4940   -0.1370   -1.9720 hn        1 MOL      0.299924
     57 H21        -7.0020   -2.3390   -3.1310 h1        1 MOL      0.089674
     58 H22        -4.8540   -1.5100   -4.0030 hc        1 MOL      0.092760
     59 H23        -5.1350   -3.2490   -3.6190 hc        1 MOL      0.092760
     60 H24        -2.7120   -2.2550   -4.2020 hn        1 MOL      0.351571
     61 H25        -1.7080   -2.1640   -2.7800 hn        1 MOL      0.351571
     62 N7         -6.2260   -3.0010   -0.0110 n         1 MOL     -0.239156
     63 C20        -6.3670   -4.0200    1.1380 c3        1 MOL     -0.205400
     64 C21        -5.0230   -4.6870    1.6180 c         1 MOL      0.557599
     65 O12        -4.9940   -5.6050    2.4680 o         1 MOL     -0.589904
     66 H26        -5.8990   -2.0910    0.2460 hn        1 MOL      0.221908
     67 H27        -7.0680   -4.8050    0.8240 h1        1 MOL      0.110519
     68 H28        -6.7760   -3.5210    2.0210 h1        1 MOL      0.110519
     69 N8         -3.8960   -4.0950    1.1710 n         1 MOL     -0.310552
     70 C22        -2.5400   -4.5880    1.4680 c3        1 MOL     -0.159173
     71 C23        -1.6290   -3.4280    1.6070 c         1 MOL      0.407257
     72 O13        -1.6800   -2.3780    0.9090 o         1 MOL     -0.514238
     73 C24        -1.9900   -5.4690    0.2680 c3        1 MOL      0.542784
     74 C25        -2.4420   -6.9050    0.5360 c3        1 MOL     -0.452476
     75 O14        -2.5420   -4.9590   -0.9510 oh        1 MOL     -0.602461
     76 H29        -4.0340   -3.3100    0.5470 hn        1 MOL      0.308532
     77 H30        -2.4880   -5.1420    2.3970 h1        1 MOL      0.118205
     78 H31        -0.9020   -5.4550    0.2670 h1        1 MOL     -0.020257
     79 H32        -2.3730   -4.0140   -1.0060 ho        1 MOL      0.325982
     80 H33        -3.4720   -7.0550    0.2220 hc        1 MOL      0.109587
     81 H34        -1.8280   -7.6180    0.0030 hc        1 MOL      0.109587
     82 H35        -2.3720   -7.1470    1.5970 hc        1 MOL      0.109587
     83 N9         -0.4980   -3.6740    2.3150 n         1 MOL     -0.370304
     84 C26         0.7270   -2.8140    2.2480 c3        1 MOL      0.040070
     85 C27         1.5800   -3.1830    1.0270 c         1 MOL      0.451317
     86 O15         1.7090   -4.3470    0.6180 o         1 MOL     -0.595550
     87 C28         1.4740   -2.9680    3.5680 c3        1 MOL      0.038827
     88 C29         0.6380   -2.4020    4.6950 c3        1 MOL      0.172904
     89 C30         2.9270   -2.4460    3.4330 c3        1 MOL      0.047768
     90 C31         1.3500   -2.7930    5.9740 c3        1 MOL     -0.135963
     91 H36        -0.4160   -4.5920    2.7110 hn        1 MOL      0.238024
     92 H37         0.3830   -1.7760    2.1540 h1        1 MOL      0.052066
     93 H38         1.5860   -4.0320    3.7610 hc        1 MOL      0.004554
     94 H39        -0.2880   -2.9750    4.6980 hc        1 MOL     -0.052643
     95 H40         0.3100   -1.3770    4.4920 hc        1 MOL     -0.052643
     96 H41         3.3890   -2.8840    2.5540 hc        1 MOL     -0.034162
     97 H42         3.0560   -1.3640    3.3250 hc        1 MOL     -0.034162
     98 H43         3.5460   -2.7670    4.2680 hc        1 MOL     -0.034162
     99 H44         2.2750   -2.2280    6.1350 hc        1 MOL      0.020291
    100 H45         0.7440   -2.4660    6.8100 hc        1 MOL      0.020291
    101 H46         1.5610   -3.8640    5.9940 hc        1 MOL      0.020291
    102 N10         2.1300   -2.1850    0.3880 n         1 MOL     -0.005373
    103 C32         2.9310   -2.2180   -0.8060 c3        1 MOL      0.014419
    104 C33         4.3570   -1.6960   -0.5140 c         1 MOL      0.466947
    105 O16         4.6160   -1.1130    0.5290 o         1 MOL     -0.369715
    106 C34         2.1970   -1.2030   -1.7550 c3        1 MOL     -0.303646
    107 C35         0.8180   -1.5910   -2.0900 c         1 MOL      0.757606
    108 O17        -0.1070   -1.2030   -1.3110 o         1 MOL     -0.678399
    109 O18         0.6170   -2.1970   -3.1770 o         1 MOL     -0.678399
    110 H47         1.9240   -1.3020    0.8420 hn        1 MOL      0.045185
    111 H48         2.8980   -3.2390   -1.1920 h1        1 MOL      0.081656
    112 H49         2.8470   -1.1080   -2.6240 hc        1 MOL      0.080373
    113 H50         2.1960   -0.2530   -1.2240 hc        1 MOL      0.080373
    114 N11         5.2880   -1.9340   -1.4180 n         1 MOL     -0.654168
    115 C36         6.7010   -1.4850   -1.2920 c3        1 MOL      0.382308
    116 C37         6.7760    0.0180   -0.9930 c         1 MOL      0.289620
    117 O19         7.4330    0.3940   -0.0250 o         1 MOL     -0.492941
    118 C38         7.4790   -1.8940   -2.5600 c3        1 MOL     -0.257774
    119 C39         8.9940   -1.5510   -2.4760 ca        1 MOL      0.039511
    120 C40         9.7610   -1.4700   -1.2700 ca        1 MOL     -0.071582
    121 C41         9.7120   -1.6040   -3.6790 ca        1 MOL     -0.071582
    122 C42        11.1120   -1.2390   -1.2930 ca        1 MOL     -0.180122
    123 C43        11.1160   -1.4560   -3.6800 ca        1 MOL     -0.180122
    124 C44        11.8600   -1.1980   -2.4940 ca        1 MOL     -0.076482
    125 H51         5.1520   -2.4300   -2.2880 hn        1 MOL      0.353454
    126 H52         7.1360   -1.9570   -0.4020 h1        1 MOL      0.042270
    127 H53         7.0280   -1.1830   -3.2510 hc        1 MOL      0.088066
    128 H54         7.2670   -2.9200   -2.8440 hc        1 MOL      0.088066
    129 H55         9.2160   -1.6200   -0.3450 ha        1 MOL      0.091142
    130 H56         9.1850   -1.8740   -4.5880 ha        1 MOL      0.091142
    131 H57        11.6280   -0.9420   -0.3970 ha        1 MOL      0.118241
    132 H58        11.6950   -1.6600   -4.5630 ha        1 MOL      0.118241
    133 H59        12.9200   -1.0100   -2.4790 ha        1 MOL      0.109879
    134 N12         6.1420    0.9620   -1.7400 n         1 MOL      0.007033
    135 C45         6.2370    2.4290   -1.4720 c3        1 MOL      0.045086
    136 C46         5.5270    2.8400   -0.1720 c         1 MOL      0.340852
    137 O20         5.7220    3.9560    0.3200 o         1 MOL     -0.514227
    138 C47         5.5640    3.1910   -2.6540 c3        1 MOL     -0.303634
    139 C48         4.5810    2.1470   -3.1600 c3        1 MOL      0.245138
    140 C49         5.3180    0.8110   -2.9680 c3        1 MOL     -0.233085
    141 H60         7.2980    2.6390   -1.4000 h1        1 MOL      0.080882
    142 H61         5.0460    4.1080   -2.3800 hc        1 MOL      0.096140
    143 H62         6.3560    3.2590   -3.4080 hc        1 MOL      0.096140
    144 H63         3.6630    2.1930   -2.5800 hc        1 MOL     -0.003987
    145 H64         4.2500    2.3120   -4.1930 hc        1 MOL     -0.003987
    146 H65         4.5850    0.0170   -2.8270 h1        1 MOL      0.052433
    147 H66         6.0120    0.6700   -3.8020 h1        1 MOL      0.052433
    148 N13         4.8570    1.8680    0.5190 n         1 MOL      0.068956
    149 C50         4.1260    2.1310    1.7640 c3        1 MOL      0.013573
    150 C51         4.8750    1.6580    3.0330 c         1 MOL      0.370936
    151 O21         5.1900    2.4590    3.9080 o         1 MOL     -0.522931
    152 C52         2.6470    1.5720    1.7520 c3        1 MOL      0.007313
    153 C53         1.8080    2.3160    0.7570 c3        1 MOL      0.032365
    154 C54         0.3870    1.8280    0.6180 c         1 MOL      0.445334
    155 O22        -0.3550    2.3960   -0.1890 o         1 MOL     -0.637438
    156 O23         0.0020    0.8190    1.2560 o         1 MOL     -0.637438
    157 H67         5.0010    0.8900    0.3540 hn        1 MOL     -0.094468
    158 H68         3.9570    3.1890    1.9830 h1        1 MOL      0.065997
    159 H69         2.2070    1.6860    2.7380 hc        1 MOL      0.001848
    160 H70         2.6060    0.4970    1.5320 hc        1 MOL      0.001848
    161 H71         2.3820    2.2830   -0.1700 hc        1 MOL      0.030249
    162 H72         1.8150    3.3830    0.9980 hc        1 MOL      0.030249
    163 N14         5.3540    0.4200    2.9790 n         1 MOL     -0.097412
    164 C55         6.4890   -0.1050    3.8440 c3        1 MOL     -0.339122
    165 H73         6.1990   -0.0570    4.8930 h1        1 MOL      0.124158
    166 H74         6.7040   -1.1390    3.5740 h1        1 MOL      0.124158
    167 H75         7.3790    0.5040    3.6850 h1        1 MOL      0.124158
    168 H76         5.1060   -0.1350    2.1710 hn        1 MOL      0.165796
    169 Ca1        -2.0140    0.0950   -0.1290 Ca        1 MOL      1.661922
    170 O24        -2.2500    0.1180    2.6730 oh        1 MOL     -0.809677
    171 H77        -2.5860    0.6030    3.4250 ho        1 MOL      0.400433
    172 H78        -1.3190   -0.0050    2.8490 ho        1 MOL      0.400433
    173 O25        -4.5800   -0.3750    1.0510 oh        1 MOL     -0.809677
    174 H79        -4.6290    0.4680    0.5970 ho        1 MOL      0.400433
    175 H80        -5.1840   -0.2900    1.7840 ho        1 MOL      0.400433
@<TRIPOS>BOND
     1    1    2 1   
     2    1    4 1   
     3    1    5 1   
     4    1    6 1   
     5    2    3 2   
     6    2    7 1   
     7    7    8 1   
     8    7   15 1   
     9    8    9 1   
    10    8   11 1   
    11    8   16 1   
    12    9   10 2   
    13    9   19 1   
    14   11   12 1   
    15   11   17 1   
    16   11   18 1   
    17   12   13 1   
    18   12   14 1   
    19   19   20 1   
    20   19   24 1   
    21   20   21 1   
    22   20   23 1   
    23   20   25 1   
    24   21   22 2   
    25   21   29 1   
    26   23   26 1   
    27   23   27 1   
    28   23   28 1   
    29   29   30 1   
    30   29   37 1   
    31   30   31 1   
    32   30   33 1   
    33   30   38 1   
    34   31   32 2   
    35   31   41 1   
    36   33   34 1   
    37   33   39 1   
    38   33   40 1   
    39   34   35 1   
    40   34   36 1   
    41   41   42 1   
    42   41   45 1   
    43   42   43 1   
    44   42   46 1   
    45   42   47 1   
    46   43   44 2   
    47   43   48 1   
    48   48   49 1   
    49   48   56 1   
    50   49   50 1   
    51   49   52 1   
    52   49   57 1   
    53   50   51 2   
    54   50   62 1   
    55   52   53 1   
    56   52   58 1   
    57   52   59 1   
    58   53   54 1   
    59   53   55 2   
    60   54   60 1   
    61   54   61 1   
    62   62   63 1   
    63   62   66 1   
    64   63   64 1   
    65   63   67 1   
    66   63   68 1   
    67   64   65 2   
    68   64   69 1   
    69   69   70 1   
    70   69   76 1   
    71   70   71 1   
    72   70   73 1   
    73   70   77 1   
    74   71   72 2   
    75   71   83 1   
    76   73   74 1   
    77   73   75 1   
    78   73   78 1   
    79   74   80 1   
    80   74   81 1   
    81   74   82 1   
    82   75   79 1   
    83   83   84 1   
    84   83   91 1   
    85   84   85 1   
    86   84   87 1   
    87   84   92 1   
    88   85   86 2   
    89   85  102 1   
    90   87   88 1   
    91   87   89 1   
    92   87   93 1   
    93   88   90 1   
    94   88   94 1   
    95   88   95 1   
    96   89   96 1   
    97   89   97 1   
    98   89   98 1   
    99   90   99 1   
   100   90  100 1   
   101   90  101 1   
   102  102  103 1   
   103  102  110 1   
   104  103  104 1   
   105  103  106 1   
   106  103  111 1   
   107  104  105 2   
   108  104  114 1   
   109  106  107 1   
   110  106  112 1   
   111  106  113 1   
   112  107  108 1   
   113  107  109 1   
   114  114  115 1   
   115  114  125 1   
   116  115  116 1   
   117  115  118 1   
   118  115  126 1   
   119  116  117 2   
   120  116  134 1   
   121  118  119 1   
   122  118  127 1   
   123  118  128 1   
   124  119  120 ar  
   125  119  121 ar  
   126  120  122 ar  
   127  120  129 1   
   128  121  123 ar  
   129  121  130 1   
   130  122  124 ar  
   131  122  131 1   
   132  123  124 ar  
   133  123  132 1   
   134  124  133 1   
   135  134  135 1   
   136  134  140 1   
   137  135  136 1   
   138  135  138 1   
   139  135  141 1   
   140  136  137 2   
   141  136  148 1   
   142  138  139 1   
   143  138  142 1   
   144  138  143 1   
   145  139  140 1   
   146  139  144 1   
   147  139  145 1   
   148  140  146 1   
   149  140  147 1   
   150  148  149 1   
   151  148  157 1   
   152  149  150 1   
   153  149  152 1   
   154  149  158 1   
   155  150  151 2   
   156  150  163 1   
   157  152  153 1   
   158  152  159 1   
   159  152  160 1   
   160  153  154 1   
   161  153  161 1   
   162  153  162 1   
   163  154  155 1   
   164  154  156 1   
   165  163  164 1   
   166  163  168 1   
   167  164  165 1   
   168  164  166 1   
   169  164  167 1   
   170  170  171 1   
   171  170  172 1   
   172  173  174 1   
   173  173  175 1   
@<TRIPOS>SUBSTRUCTURE
     1 MOL         1 TEMP              0 ****  ****    0 ROOT
