@<TRIPOS>MOLECULE
MOL
  189   185     1     0     0
SMALL
resp


@<TRIPOS>ATOM
      1 C1          0.3680   -3.7510    5.9900 c3        1 MOL     -0.480064
      2 C2          0.8290   -3.3270    4.5920 c         1 MOL      0.732709
      3 O1          1.1560   -2.2050    4.2720 o         1 MOL     -0.591932
      4 H1         -0.4780   -3.1360    6.2950 hc        1 MOL      0.126561
      5 H2          0.0660   -4.7980    5.9700 hc        1 MOL      0.126561
      6 H3          1.1860   -3.6210    6.6980 hc        1 MOL      0.126561
      7 N1          0.8910   -4.2920    3.6310 n         1 MOL     -0.510941
      8 C3          1.5580   -4.0810    2.4710 c3        1 MOL      0.183147
      9 C4          1.2590   -5.1460    1.3850 c         1 MOL      0.558441
     10 O2          1.1960   -6.3260    1.7280 o         1 MOL     -0.582569
     11 C5          3.1040   -4.0360    2.6600 c3        1 MOL     -0.235590
     12 C6          3.9620   -2.9760    1.8500 c         1 MOL      0.703055
     13 O3          4.9280   -2.4440    2.3500 o         1 MOL     -0.670144
     14 O4          3.5220   -2.6060    0.7110 o         1 MOL     -0.670144
     15 H4          0.5670   -5.2390    3.7960 hn        1 MOL      0.266157
     16 H5          1.2110   -3.1340    2.0550 h1        1 MOL      0.058445
     17 H6          3.5560   -5.0140    2.4710 hc        1 MOL      0.051011
     18 H7          3.3070   -3.9380    3.7240 hc        1 MOL      0.051011
     19 N2          1.2030   -4.7200    0.0940 n         1 MOL     -0.378395
     20 C7          0.9840   -5.5700   -1.0870 c3        1 MOL     -0.074184
     21 C8          2.2990   -5.4950   -1.9320 c         1 MOL      0.704207
     22 O5          2.5230   -6.5050   -2.6040 o         1 MOL     -0.610659
     23 C9         -0.3820   -5.1390   -1.8420 c3        1 MOL      0.291520
     24 C10        -1.5510   -5.2900   -0.9070 c3        1 MOL      0.089827
     25 C11        -0.5130   -5.9200   -3.1150 c3        1 MOL     -0.368302
     26 C12        -2.8070   -4.4590   -1.3600 c3        1 MOL     -0.208685
     27 H8          1.1470   -3.7280   -0.1060 hn        1 MOL      0.172995
     28 H9          0.8200   -6.6170   -0.8470 h1        1 MOL      0.070562
     29 H10        -0.4910   -4.1170   -2.1930 hc        1 MOL      0.002441
     30 H11        -1.1650   -4.8760    0.0230 hc        1 MOL     -0.030185
     31 H12        -1.8930   -6.3060   -0.7200 hc        1 MOL     -0.030185
     32 H13        -1.5380   -5.8370   -3.4720 hc        1 MOL      0.068603
     33 H14         0.1360   -5.5660   -3.9010 hc        1 MOL      0.068603
     34 H15        -0.4390   -6.9860   -2.8730 hc        1 MOL      0.068603
     35 H16        -3.0490   -4.7010   -2.3920 hc        1 MOL      0.048612
     36 H17        -3.6020   -4.6820   -0.6400 hc        1 MOL      0.048612
     37 H18        -2.5910   -3.3980   -1.2600 hc        1 MOL      0.048612
     38 N3          3.0420   -4.3630   -1.9460 n         1 MOL     -0.618708
     39 C13         3.9320   -4.1370   -3.0380 c3        1 MOL      0.327699
     40 C14         5.3270   -3.7530   -2.5530 c         1 MOL      0.389787
     41 O6          6.3280   -4.1580   -3.1520 o         1 MOL     -0.577992
     42 C15         3.4610   -2.8770   -3.8710 c3        1 MOL     -0.451920
     43 C16         2.6980   -1.6970   -3.1280 c         1 MOL      0.792832
     44 O7          2.9470   -1.4130   -1.9220 o         1 MOL     -0.683538
     45 O8          1.8340   -1.0120   -3.7060 o         1 MOL     -0.683538
     46 H19         2.5850   -3.6360   -1.4170 hn        1 MOL      0.299757
     47 H20         4.1700   -5.0350   -3.6100 h1        1 MOL      0.035477
     48 H21         2.7150   -3.2790   -4.5490 hc        1 MOL      0.100342
     49 H22         4.2220   -2.5050   -4.5630 hc        1 MOL      0.100342
     50 N4          5.3890   -3.0710   -1.3770 n         1 MOL     -0.052799
     51 C17         6.6190   -2.6460   -0.7280 c3        1 MOL     -0.201935
     52 C18         7.2190   -1.2570   -1.1640 c         1 MOL      0.533362
     53 O9          8.3230   -0.8610   -0.7800 o         1 MOL     -0.620682
     54 H23         4.5210   -2.7400   -0.9780 hn        1 MOL      0.004076
     55 H24         7.3870   -3.4040   -0.8980 h1        1 MOL      0.102960
     56 H25         6.5010   -2.5700    0.3440 h1        1 MOL      0.102960
     57 N5          6.4320   -0.4410   -1.8050 n         1 MOL     -0.274943
     58 C19         6.8180    0.8940   -2.2710 c3        1 MOL      0.003596
     59 C20         7.2140    1.8740   -1.1400 c         1 MOL      0.495547
     60 O10         7.7070    2.9670   -1.4610 o         1 MOL     -0.587382
     61 C21         5.7230    1.5870   -3.0640 c3        1 MOL     -0.314345
     62 C22         4.3650    1.7440   -2.3220 c         1 MOL      0.792741
     63 O11         4.1980    1.3030   -1.1440 o         1 MOL     -0.683418
     64 O12         3.3870    2.1410   -3.0400 o         1 MOL     -0.683418
     65 H26         5.4890   -0.7370   -2.0650 hn        1 MOL      0.200911
     66 H27         7.7270    0.8030   -2.8560 h1        1 MOL      0.082942
     67 H28         5.4970    0.9530   -3.9240 hc        1 MOL      0.091329
     68 H29         6.0630    2.5210   -3.5010 hc        1 MOL      0.091329
     69 N6          6.9280    1.7310    0.1470 n         1 MOL     -0.217161
     70 C23         7.0980    2.7140    1.2190 c3        1 MOL     -0.180231
     71 C24         5.9570    3.8290    1.2900 c         1 MOL      0.564336
     72 O13         6.1590    4.9650    1.7460 o         1 MOL     -0.628244
     73 H30         6.3110    0.9560    0.3470 hn        1 MOL      0.250631
     74 H31         8.0970    3.1480    1.2800 h1        1 MOL      0.092300
     75 H32         6.8970    2.1070    2.1000 h1        1 MOL      0.092300
     76 N7          4.7590    3.5580    0.7740 n         1 MOL     -0.261757
     77 C25         3.5250    4.4170    0.9280 c3        1 MOL      0.000283
     78 C26         2.4070    3.5320    1.3540 c         1 MOL      0.468915
     79 O14         2.5230    2.3000    1.1600 o         1 MOL     -0.501802
     80 C27         3.1340    4.9830   -0.4180 c3        1 MOL     -0.123005
     81 C28         4.3280    5.8020   -1.0100 c3        1 MOL     -0.068975
     82 C29         3.9390    7.0950   -1.7670 c         1 MOL      0.593795
     83 N8          4.8670    7.9960   -1.9850 n         1 MOL     -0.792199
     84 O15         2.7550    7.2200   -2.0750 o         1 MOL     -0.555177
     85 H33         4.6930    2.6310    0.3720 hn        1 MOL      0.147588
     86 H34         3.5650    5.2120    1.6700 h1        1 MOL      0.075200
     87 H35         2.3100    5.6750   -0.2450 hc        1 MOL      0.068660
     88 H36         2.9110    4.2310   -1.1700 hc        1 MOL      0.068660
     89 H37         5.0130    5.1550   -1.5600 hc        1 MOL      0.055201
     90 H38         4.9710    6.1450   -0.1970 hc        1 MOL      0.055201
     91 H39         5.8180    7.7610   -1.7580 hn        1 MOL      0.356679
     92 H40         4.6100    8.7240   -2.6380 hn        1 MOL      0.356679
     93 N9          1.2030    4.0820    1.6980 n         1 MOL     -0.417309
     94 C30         0.0260    3.3210    2.1500 c3        1 MOL      0.039098
     95 C31        -1.1090    3.6490    1.1720 c         1 MOL      0.501751
     96 O16        -1.5320    4.8200    1.0120 o         1 MOL     -0.560202
     97 C32        -0.2620    3.6020    3.6500 c3        1 MOL      0.204806
     98 C33        -1.5190    2.7690    4.1340 c3        1 MOL     -0.252116
     99 C34         0.9430    3.4370    4.6160 c3        1 MOL     -0.252116
    100 H41         1.0990    5.0850    1.8140 hn        1 MOL      0.268272
    101 H42         0.3470    2.3200    1.8700 h1        1 MOL      0.048955
    102 H43        -0.6000    4.6320    3.6530 hc        1 MOL     -0.029961
    103 H44        -2.3980    2.9210    3.5170 hc        1 MOL      0.053407
    104 H45        -1.2890    1.7320    4.3920 hc        1 MOL      0.053407
    105 H46        -1.6420    3.1940    5.1270 hc        1 MOL      0.053407
    106 H47         1.2250    2.3780    4.6090 hc        1 MOL      0.053407
    107 H48         1.7730    4.0600    4.2910 hc        1 MOL      0.053407
    108 H49         0.7490    3.7230    5.6440 hc        1 MOL      0.053407
    109 N10        -1.5730    2.5180    0.5460 n         1 MOL     -0.339973
    110 C35        -2.7190    2.5750   -0.3840 c3        1 MOL      0.077226
    111 C36        -4.0760    2.5520    0.3840 c         1 MOL      0.212744
    112 O17        -4.1710    2.0000    1.4680 o         1 MOL     -0.276022
    113 C37        -2.6940    1.4050   -1.3730 c3        1 MOL     -0.152405
    114 C38        -3.6580    1.5140   -2.4220 c         1 MOL      0.632707
    115 N11        -3.3290    2.1670   -3.5200 n         1 MOL     -0.809059
    116 O18        -4.7460    0.9980   -2.3620 o         1 MOL     -0.507971
    117 H50        -1.2680    1.5800    0.7870 hn        1 MOL      0.278147
    118 H51        -2.6480    3.5080   -0.9350 h1        1 MOL      0.055128
    119 H52        -2.8880    0.4610   -0.8640 hc        1 MOL      0.078437
    120 H53        -1.6570    1.3560   -1.7220 hc        1 MOL      0.078437
    121 H54        -2.3950    2.5390   -3.5880 hn        1 MOL      0.379839
    122 H55        -3.9890    2.0880   -4.2840 hn        1 MOL      0.379839
    123 N12        -5.1660    2.9250   -0.2500 n         1 MOL     -0.183537
    124 C39        -6.4500    2.6740    0.3400 c3        1 MOL      0.039389
    125 C40        -6.7850    1.2260    0.7080 c         1 MOL      0.510629
    126 O19        -7.4600    1.0250    1.7040 o         1 MOL     -0.573294
    127 C41        -7.5400    3.2050   -0.5790 c3        1 MOL     -0.140745
    128 C42        -7.6530    2.6370   -1.8940 ca        1 MOL      0.184548
    129 C43        -6.9990    3.2990   -2.9500 ca        1 MOL     -0.232951
    130 C44        -8.4280    1.5000   -2.2120 ca        1 MOL     -0.232951
    131 C45        -6.9570    2.7460   -4.2200 ca        1 MOL     -0.305971
    132 C46        -8.5850    1.1230   -3.5910 ca        1 MOL     -0.305971
    133 C47        -7.8550    1.7710   -4.5650 ca        1 MOL      0.428992
    134 O20        -8.0150    1.5690   -5.9370 oh        1 MOL     -0.590299
    135 H56        -5.1020    3.1650   -1.2270 hn        1 MOL      0.129120
    136 H57        -6.4940    3.1810    1.3070 h1        1 MOL      0.064203
    137 H58        -7.3110    4.2560   -0.7600 hc        1 MOL      0.030576
    138 H59        -8.5460    3.1150   -0.1630 hc        1 MOL      0.030576
    139 H60        -6.4500    4.1880   -2.7050 ha        1 MOL      0.171119
    140 H61        -9.0340    1.1210   -1.4060 ha        1 MOL      0.171119
    141 H62        -6.2930    3.0810   -5.0080 ha        1 MOL      0.161365
    142 H63        -9.1960    0.2550   -3.8060 ha        1 MOL      0.161365
    143 H64        -8.7330    0.9550   -6.0890 ho        1 MOL      0.402349
    144 N13        -6.1920    0.2010    0.0530 n         1 MOL     -0.200897
    145 C48        -6.2170   -1.2550    0.4710 c3        1 MOL     -0.194707
    146 C49        -5.3750   -1.6400    1.7290 c         1 MOL      0.428060
    147 O21        -5.5770   -2.6020    2.4150 o         1 MOL     -0.517912
    148 C50        -5.8020   -2.1450   -0.6230 c3        1 MOL      0.144503
    149 C51        -6.6860   -2.1660   -1.8900 c3        1 MOL     -0.375431
    150 C52        -7.9580   -2.9100   -1.6940 c         1 MOL      0.731829
    151 O22        -9.0260   -2.3280   -1.3720 o         1 MOL     -0.736314
    152 O23        -7.9220   -4.1850   -1.7770 o         1 MOL     -0.736314
    153 H65        -5.6490    0.3450   -0.7980 hn        1 MOL      0.228479
    154 H66        -7.1950   -1.6220    0.7720 h1        1 MOL      0.175792
    155 H67        -5.7780   -3.1480   -0.2010 hc        1 MOL      0.018864
    156 H68        -4.8040   -1.9180   -1.0020 hc        1 MOL      0.018864
    157 H69        -6.1310   -2.6020   -2.7160 hc        1 MOL      0.066515
    158 H70        -6.8280   -1.1530   -2.2570 hc        1 MOL      0.066515
    159 N14        -4.4020   -0.8010    2.1510 n         1 MOL     -0.199170
    160 C53        -3.3910   -1.0170    3.2300 c3        1 MOL      0.067147
    161 C54        -3.7580   -0.2500    4.5290 c         1 MOL      0.405239
    162 O24        -3.6960   -0.8210    5.5860 o         1 MOL     -0.546800
    163 C55        -2.0570   -0.5940    2.6950 c3        1 MOL     -0.053004
    164 C56        -1.3840   -1.5700    1.7500 c3        1 MOL     -0.029644
    165 C57        -0.2500   -0.9690    0.9150 c         1 MOL      0.756122
    166 O25         0.5600   -1.7440    0.3940 o         1 MOL     -0.736494
    167 O26        -0.0820    0.2230    0.7230 o         1 MOL     -0.736494
    168 H71        -4.1840   -0.0650    1.5010 hn        1 MOL      0.097998
    169 H72        -3.3930   -2.0500    3.5910 h1        1 MOL      0.055975
    170 H73        -1.4060   -0.4750    3.5590 hc        1 MOL      0.029448
    171 H74        -2.1150    0.4080    2.2620 hc        1 MOL      0.029448
    172 H75        -2.1510   -1.9580    1.0840 hc        1 MOL     -0.006400
    173 H76        -0.9710   -2.4140    2.3000 hc        1 MOL     -0.006400
    174 N15        -4.3580    0.9620    4.3900 n         1 MOL      0.013671
    175 C58        -4.8730    1.8410    5.3550 c3        1 MOL     -0.233007
    176 H77        -5.1150    2.7950    4.8850 h1        1 MOL      0.071143
    177 H78        -5.7740    1.4140    5.7920 h1        1 MOL      0.071143
    178 H79        -4.1290    2.0010    6.1350 h1        1 MOL      0.071143
    179 H80        -4.5250    1.1620    3.4170 hn        1 MOL      0.046731
    180 Ca1         2.5250   -0.1120    0.2350 Ca        1 MOL      1.769419
    181 O27         2.1430   -0.2700    2.9110 oh        1 MOL     -0.881847
    182 H81         1.7350   -1.0040    3.3770 ho        1 MOL      0.409339
    183 H82         2.7350    0.1210    3.5580 ho        1 MOL      0.409339
    184 O28         5.0510    0.0910    1.9550 oh        1 MOL     -0.881847
    185 H83         5.1200    0.3350    2.8750 ho        1 MOL      0.409339
    186 H84         5.1350   -0.8640    1.9450 ho        1 MOL      0.409339
    187 O29         1.3460    0.9990   -1.8420 oh        1 MOL     -0.881847
    188 H85         1.9940    1.6050   -2.1930 ho        1 MOL      0.409339
    189 H86         1.3220    0.2840   -2.4650 ho        1 MOL      0.409339
@<TRIPOS>BOND
     1    1    2 1   
     2    1    4 1   
     3    1    5 1   
     4    1    6 1   
     5    2    3 2   
     6    2    7 1   
     7    7    8 1   
     8    7   15 1   
     9    8    9 1   
    10    8   11 1   
    11    8   16 1   
    12    9   10 2   
    13    9   19 1   
    14   11   12 1   
    15   11   17 1   
    16   11   18 1   
    17   12   13 1   
    18   12   14 1   
    19   19   20 1   
    20   19   27 1   
    21   20   21 1   
    22   20   23 1   
    23   20   28 1   
    24   21   22 2   
    25   21   38 1   
    26   23   24 1   
    27   23   25 1   
    28   23   29 1   
    29   24   26 1   
    30   24   30 1   
    31   24   31 1   
    32   25   32 1   
    33   25   33 1   
    34   25   34 1   
    35   26   35 1   
    36   26   36 1   
    37   26   37 1   
    38   38   39 1   
    39   38   46 1   
    40   39   40 1   
    41   39   42 1   
    42   39   47 1   
    43   40   41 2   
    44   40   50 1   
    45   42   43 1   
    46   42   48 1   
    47   42   49 1   
    48   43   44 1   
    49   43   45 1   
    50   50   51 1   
    51   50   54 1   
    52   51   52 1   
    53   51   55 1   
    54   51   56 1   
    55   52   53 2   
    56   52   57 1   
    57   57   58 1   
    58   57   65 1   
    59   58   59 1   
    60   58   61 1   
    61   58   66 1   
    62   59   60 2   
    63   59   69 1   
    64   61   62 1   
    65   61   67 1   
    66   61   68 1   
    67   62   63 1   
    68   62   64 1   
    69   69   70 1   
    70   69   73 1   
    71   70   71 1   
    72   70   74 1   
    73   70   75 1   
    74   71   72 2   
    75   71   76 1   
    76   76   77 1   
    77   76   85 1   
    78   77   78 1   
    79   77   80 1   
    80   77   86 1   
    81   78   79 2   
    82   78   93 1   
    83   80   81 1   
    84   80   87 1   
    85   80   88 1   
    86   81   82 1   
    87   81   89 1   
    88   81   90 1   
    89   82   83 1   
    90   82   84 2   
    91   83   91 1   
    92   83   92 1   
    93   93   94 1   
    94   93  100 1   
    95   94   95 1   
    96   94   97 1   
    97   94  101 1   
    98   95   96 2   
    99   95  109 1   
   100   97   98 1   
   101   97   99 1   
   102   97  102 1   
   103   98  103 1   
   104   98  104 1   
   105   98  105 1   
   106   99  106 1   
   107   99  107 1   
   108   99  108 1   
   109  109  110 1   
   110  109  117 1   
   111  110  111 1   
   112  110  113 1   
   113  110  118 1   
   114  111  112 2   
   115  111  123 1   
   116  113  114 1   
   117  113  119 1   
   118  113  120 1   
   119  114  115 1   
   120  114  116 2   
   121  115  121 1   
   122  115  122 1   
   123  123  124 1   
   124  123  135 1   
   125  124  125 1   
   126  124  127 1   
   127  124  136 1   
   128  125  126 2   
   129  125  144 1   
   130  127  128 1   
   131  127  137 1   
   132  127  138 1   
   133  128  129 ar  
   134  128  130 ar  
   135  129  131 ar  
   136  129  139 1   
   137  130  132 ar  
   138  130  140 1   
   139  131  133 ar  
   140  131  141 1   
   141  132  133 ar  
   142  132  142 1   
   143  133  134 1   
   144  134  143 1   
   145  144  145 1   
   146  144  153 1   
   147  145  146 1   
   148  145  148 1   
   149  145  154 1   
   150  146  147 2   
   151  146  159 1   
   152  148  149 1   
   153  148  155 1   
   154  148  156 1   
   155  149  150 1   
   156  149  157 1   
   157  149  158 1   
   158  150  151 1   
   159  150  152 1   
   160  159  160 1   
   161  159  168 1   
   162  160  161 1   
   163  160  163 1   
   164  160  169 1   
   165  161  162 2   
   166  161  174 1   
   167  163  164 1   
   168  163  170 1   
   169  163  171 1   
   170  164  165 1   
   171  164  172 1   
   172  164  173 1   
   173  165  166 1   
   174  165  167 1   
   175  174  175 1   
   176  174  179 1   
   177  175  176 1   
   178  175  177 1   
   179  175  178 1   
   180  181  182 1   
   181  181  183 1   
   182  184  185 1   
   183  184  186 1   
   184  187  188 1   
   185  187  189 1   
@<TRIPOS>SUBSTRUCTURE
     1 MOL         1 TEMP              0 ****  ****    0 ROOT
