@<TRIPOS>MOLECULE
MOL
  179   176     1     0     0
SMALL
resp


@<TRIPOS>ATOM
      1 C1          0.4160    3.5730    5.6650 c3        1 MOL     -0.210506
      2 C2          0.0010    3.2270    4.1990 c         1 MOL      0.649917
      3 O1          0.7260    3.6310    3.2560 o         1 MOL     -0.585525
      4 H1         -0.4240    4.0400    6.1790 hc        1 MOL      0.058066
      5 H2          0.7000    2.6600    6.1880 hc        1 MOL      0.058066
      6 H3          1.2610    4.2630    5.6510 hc        1 MOL      0.058066
      7 N1         -1.1310    2.5780    3.9760 n         1 MOL     -0.584938
      8 C3         -1.6380    2.3950    2.6130 c3        1 MOL     -0.033365
      9 C4         -2.4320    3.7340    2.1700 c         1 MOL      0.575775
     10 O2         -3.6770    3.7470    2.2440 o         1 MOL     -0.540623
     11 C5         -2.5790    1.1440    2.6420 c3        1 MOL     -0.146995
     12 C6         -3.0070    0.7210    1.2780 c         1 MOL      0.698977
     13 O3         -2.5370    1.2550    0.2680 o         1 MOL     -0.781033
     14 O4         -3.7150   -0.3490    1.2260 o         1 MOL     -0.781033
     15 H4         -1.5410    2.1330    4.7950 hn        1 MOL      0.330563
     16 H5         -0.7750    2.3730    1.9550 h1        1 MOL      0.120154
     17 H6         -3.4890    1.2720    3.2370 hc        1 MOL      0.086678
     18 H7         -2.0200    0.3620    3.1410 hc        1 MOL      0.086678
     19 N2         -1.8550    4.7220    1.5510 n         1 MOL     -0.377341
     20 C7         -2.3760    6.0450    1.0100 c3        1 MOL     -0.031180
     21 C8         -3.4140    5.8290   -0.1280 c         1 MOL      0.528586
     22 O5         -4.2800    6.6510   -0.2930 o         1 MOL     -0.578852
     23 C9         -1.2310    6.9750    0.4440 c3        1 MOL     -0.237923
     24 C10        -1.5830    8.4320    0.2520 c3        1 MOL      0.072012
     25 C11        -0.3830    8.9730   -0.4250 c3        1 MOL      0.039887
     26 C12        -0.3750   10.4920   -0.4250 c3        1 MOL     -0.080665
     27 N3         -1.4320   11.0140   -1.3440 n4        1 MOL     -0.309882
     28 H8         -0.8640    4.6170    1.3420 hn        1 MOL      0.257935
     29 H9         -2.8500    6.6720    1.7590 h1        1 MOL      0.098456
     30 H10        -0.7180    6.4740   -0.3740 hc        1 MOL      0.109050
     31 H11        -0.5310    7.0210    1.2780 hc        1 MOL      0.109050
     32 H12        -1.8180    9.0820    1.0850 hc        1 MOL      0.009257
     33 H13        -2.3650    8.5180   -0.5070 hc        1 MOL      0.009257
     34 H14        -0.1840    8.5780   -1.4130 hc        1 MOL      0.028366
     35 H15         0.5280    8.6690    0.1040 hc        1 MOL      0.028366
     36 H16         0.6030   10.7380   -0.8210 hx        1 MOL      0.113934
     37 H17        -0.5430   10.8450    0.5980 hx        1 MOL      0.113934
     38 H18        -1.3070   12.0050   -1.4300 hn        1 MOL      0.318892
     39 H19        -1.4210   10.4730   -2.1980 hn        1 MOL      0.318892
     40 H20        -2.3510   10.8750   -0.9420 hn        1 MOL      0.318892
     41 N4         -3.2770    4.7720   -0.8680 n         1 MOL     -0.279991
     42 C13        -4.2170    4.3280   -1.9330 c3        1 MOL      0.042105
     43 C14        -5.3000    3.3140   -1.4280 c         1 MOL      0.449275
     44 O6         -6.3380    3.2270   -2.0620 o         1 MOL     -0.534443
     45 C15        -3.5540    3.6900   -3.1780 c3        1 MOL     -0.275468
     46 C16        -2.7130    2.4490   -2.8990 c         1 MOL      0.693312
     47 O7         -1.5660    2.6180   -2.4350 o         1 MOL     -0.718405
     48 O8         -3.2630    1.2880   -2.8940 o         1 MOL     -0.718405
     49 H21        -2.5130    4.1470   -0.6480 hn        1 MOL      0.238994
     50 H22        -4.8260    5.1920   -2.1910 h1        1 MOL      0.079557
     51 H23        -2.8680    4.4450   -3.5660 hc        1 MOL      0.071564
     52 H24        -4.3360    3.4700   -3.8980 hc        1 MOL      0.071564
     53 N5         -5.0350    2.5760   -0.3700 n         1 MOL      0.032884
     54 C17        -6.1090    1.8930    0.3400 c3        1 MOL     -0.152407
     55 C18        -6.6590    0.5620   -0.1600 c         1 MOL      0.534903
     56 O9         -7.8500    0.3840    0.0670 o         1 MOL     -0.549443
     57 H25        -4.1460    2.6850    0.1010 hn        1 MOL      0.025775
     58 H26        -6.9860    2.5410    0.3320 h1        1 MOL      0.075194
     59 H27        -5.7980    1.6360    1.3480 h1        1 MOL      0.075194
     60 N6         -5.8300   -0.2280   -0.8970 n         1 MOL     -0.304991
     61 C19        -6.2160   -1.5670   -1.2250 c3        1 MOL      0.072956
     62 C20        -6.0860   -2.5980   -0.0880 c         1 MOL      0.254716
     63 O10        -6.2830   -3.7770   -0.4080 o         1 MOL     -0.411729
     64 C21        -5.5320   -2.0090   -2.5140 c3        1 MOL     -0.205773
     65 C22        -4.0410   -2.2690   -2.3290 c         1 MOL      0.713627
     66 N7         -3.5540   -3.4520   -2.7630 n         1 MOL     -0.882438
     67 O11        -3.2650   -1.4210   -1.8350 o         1 MOL     -0.673419
     68 H28        -4.8600    0.0580   -0.9460 hn        1 MOL      0.235123
     69 H29        -7.2950   -1.5400   -1.4060 h1        1 MOL      0.100844
     70 H30        -5.8280   -1.3060   -3.3030 hc        1 MOL      0.075189
     71 H31        -6.0010   -2.9740   -2.7110 hc        1 MOL      0.075189
     72 H32        -4.2310   -4.0820   -3.1570 hn        1 MOL      0.410503
     73 H33        -2.5730   -3.6620   -2.6280 hn        1 MOL      0.410503
     74 N8         -5.6220   -2.2120    1.1160 n         1 MOL     -0.207202
     75 C23        -5.3890   -3.2330    2.0920 c3        1 MOL     -0.334981
     76 C24        -4.0260   -3.9650    2.0720 c         1 MOL      0.659419
     77 O12        -3.8070   -4.8150    2.9230 o         1 MOL     -0.592626
     78 H34        -5.2770   -1.2930    1.3670 hn        1 MOL      0.320338
     79 H35        -6.2030   -3.9540    2.0630 h1        1 MOL      0.145709
     80 H36        -5.5170   -2.6630    3.0150 h1        1 MOL      0.145709
     81 N9         -3.0880   -3.6470    1.2110 n         1 MOL     -0.601226
     82 C25        -1.7690   -4.2570    1.0640 c3        1 MOL      0.693257
     83 C26        -0.7720   -3.1020    0.7420 c         1 MOL     -0.056771
     84 O13        -1.1150   -2.0020    0.2430 o         1 MOL     -0.331216
     85 C27        -1.6850   -5.3550   -0.0930 c3        1 MOL      0.031606
     86 C28        -2.7620   -6.4390   -0.1440 ca        1 MOL      0.068473
     87 C29        -4.0540   -6.0900   -0.6550 ca        1 MOL     -0.294964
     88 C30        -2.4850   -7.7160    0.4110 ca        1 MOL     -0.294964
     89 C31        -5.1070   -7.0470   -0.5080 ca        1 MOL     -0.102524
     90 C32        -3.5710   -8.6240    0.5000 ca        1 MOL     -0.102524
     91 C33        -4.8450   -8.2700   -0.0030 ca        1 MOL      0.235218
     92 O14        -5.8910   -9.1450    0.1260 oh        1 MOL     -0.463428
     93 H37        -3.2410   -2.7900    0.7170 hn        1 MOL      0.384854
     94 H38        -1.4900   -4.8000    1.9670 h1        1 MOL     -0.086362
     95 H39        -0.6570   -5.7220    0.0070 hc        1 MOL     -0.051506
     96 H40        -1.7690   -4.7120   -0.9640 hc        1 MOL     -0.051506
     97 H41        -4.2540   -5.0980   -1.0260 ha        1 MOL      0.164029
     98 H42        -1.5220   -7.9740    0.8430 ha        1 MOL      0.164029
     99 H43        -6.1350   -6.8170   -0.7510 ha        1 MOL      0.103335
    100 H44        -3.3430   -9.6370    0.7960 ha        1 MOL      0.103335
    101 H45        -5.5610  -10.0130    0.3810 ho        1 MOL      0.342706
    102 N10         0.5010   -3.5240    0.9590 n         1 MOL     -0.056235
    103 C34         1.6520   -2.6390    0.7890 c3        1 MOL     -0.498272
    104 C35         2.8670   -3.2990    0.2460 c         1 MOL      0.626252
    105 O15         3.1620   -4.4380    0.5700 o         1 MOL     -0.564386
    106 C36         2.0110   -1.6330    1.9440 c3        1 MOL     -0.113525
    107 C37         2.6360   -2.4510    3.1060 c3        1 MOL     -0.540786
    108 C38         0.8150   -0.7870    2.4320 c3        1 MOL     -0.110304
    109 C39         2.8580   -1.6920    4.3930 c3        1 MOL     -0.305805
    110 H46         0.5730   -4.3390    1.5600 hn        1 MOL      0.232219
    111 H47         1.2240   -2.0740   -0.0480 h1        1 MOL      0.180441
    112 H48         2.6890   -0.8940    1.5080 hc        1 MOL      0.218490
    113 H49         3.5610   -2.9310    2.7970 hc        1 MOL      0.246344
    114 H50         1.9320   -3.1920    3.4750 hc        1 MOL      0.246344
    115 H51         0.0720   -1.3220    3.0160 hc        1 MOL      0.082736
    116 H52         1.3240   -0.0620    3.0700 hc        1 MOL      0.082736
    117 H53         0.4540   -0.2190    1.5690 hc        1 MOL      0.082736
    118 H54         3.3280   -2.4300    5.0400 hc        1 MOL      0.102555
    119 H55         3.4410   -0.8150    4.1360 hc        1 MOL      0.102555
    120 H56         1.9400   -1.2930    4.8130 hc        1 MOL      0.102555
    121 N11         3.5750   -2.5810   -0.6020 n         1 MOL     -0.295350
    122 C40         4.8020   -2.9840   -1.1810 c3        1 MOL     -0.124679
    123 C41         6.0660   -2.6280   -0.3350 c         1 MOL      0.559461
    124 O16         6.1030   -1.8450    0.5660 o         1 MOL     -0.449683
    125 C42         4.9930   -2.2570   -2.5200 c3        1 MOL     -0.049316
    126 O17         4.9550   -0.8320   -2.4100 oh        1 MOL     -0.516552
    127 H57         3.2420   -1.6290   -0.7270 hn        1 MOL      0.353786
    128 H58         4.7960   -4.0770   -1.2730 h1        1 MOL      0.080165
    129 H59         4.2820   -2.6460   -3.2430 h1        1 MOL      0.084393
    130 H60         5.9610   -2.5500   -2.9160 h1        1 MOL      0.084393
    131 H61         4.0480   -0.5470   -2.2490 ho        1 MOL      0.357385
    132 N12         7.1790   -3.2220   -0.7910 n         1 MOL     -0.453284
    133 C43         8.5450   -2.8400   -0.3700 c3        1 MOL      0.068567
    134 C44         8.9590   -1.3470   -0.6830 c         1 MOL      0.502956
    135 O18         9.8370   -0.7470   -0.1130 o         1 MOL     -0.507471
    136 C45         9.5460   -3.9060   -0.7390 c3        1 MOL     -0.421597
    137 H62         7.0470   -3.9270   -1.5030 hn        1 MOL      0.293460
    138 H63         8.6230   -2.8250    0.7140 h1        1 MOL      0.107788
    139 H64         9.4230   -4.7840   -0.0940 hc        1 MOL      0.130194
    140 H65         9.3650   -4.3080   -1.7310 hc        1 MOL      0.130194
    141 H66        10.5580   -3.4970   -0.6810 hc        1 MOL      0.130194
    142 N13         8.4070   -0.6970   -1.7270 n         1 MOL     -0.410012
    143 C46         8.5610    0.7050   -2.1340 c3        1 MOL      0.215298
    144 C47         7.8480    1.6200   -1.1260 c         1 MOL      0.321389
    145 O19         8.4630    2.5580   -0.5800 o         1 MOL     -0.505465
    146 C48         7.9680    0.7650   -3.5530 c3        1 MOL     -0.284362
    147 H67         7.6280   -1.2060   -2.1210 hn        1 MOL      0.242376
    148 H68         9.6140    0.9650   -2.1250 h1        1 MOL      0.071163
    149 H69         8.4460   -0.0220   -4.1390 hc        1 MOL      0.072979
    150 H70         6.8980    0.5840   -3.4480 hc        1 MOL      0.072979
    151 H71         8.0980    1.7690   -3.9650 hc        1 MOL      0.072979
    152 N14         6.5990    1.2850   -0.7730 n         1 MOL     -0.034087
    153 C49         5.7620    1.8560    0.2960 c3        1 MOL     -0.117879
    154 C50         6.3370    1.6860    1.6740 c         1 MOL      0.485254
    155 O20         6.3040    2.6290    2.4800 o         1 MOL     -0.560921
    156 C51         4.3670    1.2060    0.2850 c3        1 MOL      0.119675
    157 C52         3.4770    1.6850   -0.8560 c3        1 MOL     -0.316733
    158 C53         2.3080    0.8330   -1.1740 c         1 MOL      0.857406
    159 O21         2.3870   -0.3320   -1.5910 o         1 MOL     -0.747511
    160 O22         1.1690    1.2610   -0.8850 o         1 MOL     -0.747511
    161 H72         6.2180    0.4990   -1.2790 hn        1 MOL      0.029400
    162 H73         5.6680    2.9410    0.2130 h1        1 MOL      0.100347
    163 H74         3.8270    1.3710    1.2190 hc        1 MOL     -0.005330
    164 H75         4.4510    0.1200    0.2650 hc        1 MOL     -0.005330
    165 H76         4.0070    1.8790   -1.7890 hc        1 MOL      0.069732
    166 H77         3.2130    2.7260   -0.6320 hc        1 MOL      0.069732
    167 N15         6.9330    0.5330    1.9660 n         1 MOL     -0.086121
    168 C54         7.6570    0.3450    3.2230 c3        1 MOL     -0.431006
    169 H78         8.2460   -0.5700    3.1690 h1        1 MOL      0.149605
    170 H79         8.3200    1.1940    3.3920 h1        1 MOL      0.149605
    171 H80         6.9450    0.2700    4.0450 h1        1 MOL      0.149605
    172 H81         7.0200   -0.1340    1.2210 hn        1 MOL      0.157228
    173 Ca1        -1.1310    0.0620   -1.6180 Ca        1 MOL      1.813932
    174 O23         0.2140    0.6270   -3.9800 oh        1 MOL     -0.939838
    175 H82        -0.0450    1.3720   -4.5230 ho        1 MOL      0.447371
    176 H83         0.8740    0.1680   -4.4930 ho        1 MOL      0.447371
    177 O24         0.0430   -2.2540   -2.3320 oh        1 MOL     -0.939838
    178 H84        -0.2260   -3.1440   -2.5700 ho        1 MOL      0.447371
    179 H85         0.8170   -2.0780   -2.8620 ho        1 MOL      0.447371
@<TRIPOS>BOND
     1    1    2 1   
     2    1    4 1   
     3    1    5 1   
     4    1    6 1   
     5    2    3 2   
     6    2    7 1   
     7    7    8 1   
     8    7   15 1   
     9    8    9 1   
    10    8   11 1   
    11    8   16 1   
    12    9   10 2   
    13    9   19 1   
    14   11   12 1   
    15   11   17 1   
    16   11   18 1   
    17   12   13 1   
    18   12   14 1   
    19   19   20 1   
    20   19   28 1   
    21   20   21 1   
    22   20   23 1   
    23   20   29 1   
    24   21   22 2   
    25   21   41 1   
    26   23   24 1   
    27   23   30 1   
    28   23   31 1   
    29   24   25 1   
    30   24   32 1   
    31   24   33 1   
    32   25   26 1   
    33   25   34 1   
    34   25   35 1   
    35   26   27 1   
    36   26   36 1   
    37   26   37 1   
    38   27   38 1   
    39   27   39 1   
    40   27   40 1   
    41   41   42 1   
    42   41   49 1   
    43   42   43 1   
    44   42   45 1   
    45   42   50 1   
    46   43   44 2   
    47   43   53 1   
    48   45   46 1   
    49   45   51 1   
    50   45   52 1   
    51   46   47 1   
    52   46   48 1   
    53   53   54 1   
    54   53   57 1   
    55   54   55 1   
    56   54   58 1   
    57   54   59 1   
    58   55   56 2   
    59   55   60 1   
    60   60   61 1   
    61   60   68 1   
    62   61   62 1   
    63   61   64 1   
    64   61   69 1   
    65   62   63 2   
    66   62   74 1   
    67   64   65 1   
    68   64   70 1   
    69   64   71 1   
    70   65   66 1   
    71   65   67 2   
    72   66   72 1   
    73   66   73 1   
    74   74   75 1   
    75   74   78 1   
    76   75   76 1   
    77   75   79 1   
    78   75   80 1   
    79   76   77 2   
    80   76   81 1   
    81   81   82 1   
    82   81   93 1   
    83   82   83 1   
    84   82   85 1   
    85   82   94 1   
    86   83   84 2   
    87   83  102 1   
    88   85   86 1   
    89   85   95 1   
    90   85   96 1   
    91   86   87 ar  
    92   86   88 ar  
    93   87   89 ar  
    94   87   97 1   
    95   88   90 ar  
    96   88   98 1   
    97   89   91 ar  
    98   89   99 1   
    99   90   91 ar  
   100   90  100 1   
   101   91   92 1   
   102   92  101 1   
   103  102  103 1   
   104  102  110 1   
   105  103  104 1   
   106  103  106 1   
   107  103  111 1   
   108  104  105 2   
   109  104  121 1   
   110  106  107 1   
   111  106  108 1   
   112  106  112 1   
   113  107  109 1   
   114  107  113 1   
   115  107  114 1   
   116  108  115 1   
   117  108  116 1   
   118  108  117 1   
   119  109  118 1   
   120  109  119 1   
   121  109  120 1   
   122  121  122 1   
   123  121  127 1   
   124  122  123 1   
   125  122  125 1   
   126  122  128 1   
   127  123  124 2   
   128  123  132 1   
   129  125  126 1   
   130  125  129 1   
   131  125  130 1   
   132  126  131 1   
   133  132  133 1   
   134  132  137 1   
   135  133  134 1   
   136  133  136 1   
   137  133  138 1   
   138  134  135 2   
   139  134  142 1   
   140  136  139 1   
   141  136  140 1   
   142  136  141 1   
   143  142  143 1   
   144  142  147 1   
   145  143  144 1   
   146  143  146 1   
   147  143  148 1   
   148  144  145 2   
   149  144  152 1   
   150  146  149 1   
   151  146  150 1   
   152  146  151 1   
   153  152  153 1   
   154  152  161 1   
   155  153  154 1   
   156  153  156 1   
   157  153  162 1   
   158  154  155 2   
   159  154  167 1   
   160  156  157 1   
   161  156  163 1   
   162  156  164 1   
   163  157  158 1   
   164  157  165 1   
   165  157  166 1   
   166  158  159 1   
   167  158  160 1   
   168  167  168 1   
   169  167  172 1   
   170  168  169 1   
   171  168  170 1   
   172  168  171 1   
   173  174  175 1   
   174  174  176 1   
   175  177  178 1   
   176  177  179 1   
@<TRIPOS>SUBSTRUCTURE
     1 MOL         1 TEMP              0 ****  ****    0 ROOT
