@<TRIPOS>MOLECULE
MOL
  189   185     1     0     0
SMALL
resp


@<TRIPOS>ATOM
      1 C1          0.6260    1.1020    5.8090 c3        1 MOL     -0.254783
      2 C2          0.0050    1.3110    4.3700 c         1 MOL      0.520371
      3 O1          0.7300    1.8820    3.5240 o         1 MOL     -0.541028
      4 H1         -0.1180    0.6490    6.4630 hc        1 MOL      0.079036
      5 H2          1.4940    0.4450    5.7380 hc        1 MOL      0.079036
      6 H3          0.9310    2.0660    6.2170 hc        1 MOL      0.079036
      7 N1         -1.2500    0.9600    4.1100 n         1 MOL     -0.422519
      8 C3         -1.8820    1.0210    2.7620 c3        1 MOL      0.142670
      9 C4         -2.5150    2.3520    2.5540 c         1 MOL      0.341223
     10 O2         -3.7490    2.5080    2.7080 o         1 MOL     -0.454303
     11 C5         -3.0010   -0.0940    2.7840 c3        1 MOL     -0.183674
     12 C6         -3.8290   -0.1820    1.5080 c         1 MOL      0.632440
     13 O3         -3.3980    0.3710    0.4440 o         1 MOL     -0.587424
     14 O4         -4.8770   -0.9100    1.6050 o         1 MOL     -0.587424
     15 H4         -1.7820    0.5210    4.8470 hn        1 MOL      0.297442
     16 H5         -1.1440    0.6900    2.0290 h1        1 MOL      0.002014
     17 H6         -3.6860    0.0150    3.6260 hc        1 MOL      0.038105
     18 H7         -2.5790   -1.0760    2.9680 hc        1 MOL      0.038105
     19 N2         -1.6300    3.3160    2.3660 n         1 MOL     -0.223594
     20 C7         -1.9380    4.7780    2.2470 c3        1 MOL     -0.130168
     21 C8         -3.0270    5.1120    1.1850 c         1 MOL      0.508288
     22 O5         -3.8000    6.0460    1.4030 o         1 MOL     -0.559809
     23 C9         -0.6350    5.5450    2.1600 c3        1 MOL     -0.235180
     24 C10         0.2800    5.1290    0.9910 c3        1 MOL      0.550374
     25 C11         1.4680    6.0900    0.9310 c3        1 MOL     -0.247772
     26 C12         1.0880    7.4300    0.4080 c3        1 MOL      0.135030
     27 N3          2.0760    8.4360    0.8710 n4        1 MOL     -0.354510
     28 H8         -0.6880    2.9490    2.3410 hn        1 MOL      0.249712
     29 H9         -2.4510    4.8720    3.2080 h1        1 MOL      0.119335
     30 H10        -0.0470    5.4790    3.0740 hc        1 MOL      0.067564
     31 H11        -0.8890    6.5870    1.9500 hc        1 MOL      0.067564
     32 H12        -0.3330    5.0700    0.0970 hc        1 MOL     -0.124340
     33 H13         0.7090    4.1590    1.2200 hc        1 MOL     -0.124340
     34 H14         2.1870    5.6340    0.2420 hc        1 MOL      0.056213
     35 H15         1.8950    6.3840    1.8910 hc        1 MOL      0.056213
     36 H16         0.0990    7.7450    0.7260 hx        1 MOL      0.054600
     37 H17         1.0650    7.4700   -0.6800 hx        1 MOL      0.054600
     38 H18         2.9760    8.1960    0.4970 hn        1 MOL      0.318413
     39 H19         1.8610    9.3590    0.5130 hn        1 MOL      0.318413
     40 H20         2.2640    8.4310    1.8620 hn        1 MOL      0.318413
     41 N4         -3.0930    4.3560    0.0820 n         1 MOL     -0.296670
     42 C13        -4.0400    4.6790   -1.0060 c3        1 MOL     -0.041918
     43 C14        -5.2880    3.8220   -0.9610 c         1 MOL      0.426361
     44 O6         -6.0760    3.9640   -1.8770 o         1 MOL     -0.522628
     45 C15        -3.2810    4.6560   -2.2920 c3        1 MOL     -0.054017
     46 C16        -2.6250    3.3240   -2.6310 c         1 MOL      0.778862
     47 O7         -2.8330    2.3430   -1.9520 o         1 MOL     -0.704249
     48 O8         -1.8470    3.3690   -3.6370 o         1 MOL     -0.704249
     49 H21        -2.6110    3.4700    0.0760 hn        1 MOL      0.244057
     50 H22        -4.2730    5.7430   -0.9650 h1        1 MOL      0.104210
     51 H23        -2.5660    5.4710   -2.3720 hc        1 MOL      0.009407
     52 H24        -3.9680    4.9910   -3.0720 hc        1 MOL      0.009407
     53 N5         -5.5260    2.9920    0.0490 n         1 MOL     -0.137665
     54 C17        -6.8380    2.3930    0.3090 c3        1 MOL     -0.104664
     55 C18        -7.3570    1.2770   -0.6470 c         1 MOL      0.457398
     56 O9         -8.5730    1.3830   -0.9440 o         1 MOL     -0.535281
     57 H25        -4.7430    2.9710    0.6860 hn        1 MOL      0.144247
     58 H26        -7.5300    3.2430    0.3170 h1        1 MOL      0.080049
     59 H27        -6.8620    1.9930    1.3200 h1        1 MOL      0.080049
     60 N6         -6.5070    0.2680   -1.0120 n         1 MOL     -0.176843
     61 C19        -6.9450   -0.9600   -1.7370 c3        1 MOL      0.043167
     62 C20        -7.2530   -2.2800   -1.0390 c         1 MOL      0.415496
     63 O10        -8.2380   -2.9300   -1.3830 o         1 MOL     -0.555742
     64 C21        -6.0790   -1.1130   -3.0610 c3        1 MOL     -0.224865
     65 C22        -4.6630   -1.0230   -2.6270 c         1 MOL      0.756416
     66 O11        -3.9620   -0.1430   -3.1700 o         1 MOL     -0.767442
     67 O12        -4.1370   -1.6570   -1.6900 o         1 MOL     -0.767442
     68 H28        -5.5690    0.3110   -0.6410 hn        1 MOL      0.177544
     69 H29        -7.9460   -0.7150   -2.0980 h1        1 MOL      0.069458
     70 H30        -6.3180   -0.3410   -3.7930 hc        1 MOL      0.082387
     71 H31        -6.3170   -2.0720   -3.5310 hc        1 MOL      0.082387
     72 N7         -6.6280   -2.5020    0.0810 n         1 MOL     -0.067833
     73 C23        -6.6120   -3.7140    0.9510 c3        1 MOL     -0.107390
     74 C24        -5.3320   -4.6100    0.7690 c         1 MOL      0.597641
     75 O13        -5.4340   -5.7970    1.0010 o         1 MOL     -0.590073
     76 H32        -5.9080   -1.8260    0.2980 hn        1 MOL     -0.004646
     77 H33        -7.4550   -4.3370    0.6490 h1        1 MOL      0.077183
     78 H34        -6.7170   -3.4870    2.0120 h1        1 MOL      0.077183
     79 N8         -4.2630   -4.0420    0.2590 n         1 MOL     -0.370807
     80 C25        -3.0220   -4.7240   -0.0480 c3        1 MOL     -0.245912
     81 C26        -1.8720   -3.7980    0.1620 c         1 MOL      0.759291
     82 O14        -1.8240   -2.6720   -0.3640 o         1 MOL     -0.693133
     83 C27        -3.1260   -5.2360   -1.5640 c3        1 MOL      0.599262
     84 C28        -3.6200   -6.7190   -1.6470 c3        1 MOL     -0.419882
     85 O15        -3.9400   -4.3880   -2.3900 oh        1 MOL     -0.672530
     86 H35        -4.3340   -3.0490    0.0810 hn        1 MOL      0.286956
     87 H36        -2.9390   -5.6300    0.5550 h1        1 MOL      0.116054
     88 H37        -2.1090   -5.2770   -1.9330 h1        1 MOL     -0.074063
     89 H38        -3.9090   -3.4670   -2.1030 ho        1 MOL      0.442288
     90 H39        -2.9180   -7.3760   -1.1320 hc        1 MOL      0.101338
     91 H40        -4.6010   -6.8270   -1.1930 hc        1 MOL      0.101338
     92 H41        -3.5990   -6.8900   -2.7230 hc        1 MOL      0.101338
     93 N9         -0.8090   -4.3080    0.8340 n         1 MOL     -0.715090
     94 C29         0.3430   -3.4380    1.2020 c3        1 MOL      0.252903
     95 C30         1.5230   -3.8770    0.2610 c         1 MOL      0.520914
     96 O16         1.7960   -5.0750    0.1590 o         1 MOL     -0.579711
     97 C31         0.7050   -3.6610    2.7070 c3        1 MOL      0.400971
     98 C32        -0.5000   -3.3840    3.7000 c3        1 MOL      0.019379
     99 C33         1.8600   -2.7240    3.1290 c3        1 MOL     -0.669339
    100 C34        -0.3820   -4.1360    5.0620 c3        1 MOL     -0.141034
    101 H42        -0.8670   -5.2650    1.1570 hn        1 MOL      0.328432
    102 H43         0.1170   -2.3810    1.1490 h1        1 MOL      0.033083
    103 H44         1.0280   -4.7020    2.7560 hc        1 MOL     -0.088370
    104 H45        -1.3480   -3.7740    3.1490 hc        1 MOL     -0.011667
    105 H46        -0.5250   -2.3030    3.8390 hc        1 MOL     -0.011667
    106 H47         2.1430   -3.0500    4.1360 hc        1 MOL      0.129301
    107 H48         2.6990   -2.8070    2.4300 hc        1 MOL      0.129301
    108 H49         1.5010   -1.7020    3.1500 hc        1 MOL      0.129301
    109 H50         0.5250   -3.9890    5.6630 hc        1 MOL      0.035267
    110 H51        -1.1860   -3.8210    5.7210 hc        1 MOL      0.035267
    111 H52        -0.6090   -5.2000    5.0180 hc        1 MOL      0.035267
    112 N10         2.1250   -2.9480   -0.4020 n         1 MOL     -0.142593
    113 C35         3.3630   -3.0100   -1.1810 c3        1 MOL     -0.108551
    114 C36         4.6960   -2.9380   -0.3500 c         1 MOL      0.294135
    115 O17         4.6950   -2.4280    0.7660 o         1 MOL     -0.288861
    116 C37         3.4200   -1.9300   -2.2730 c3        1 MOL      0.401573
    117 C38         2.4000   -2.1480   -3.3690 c3        1 MOL     -0.605662
    118 O18         3.2860   -0.7180   -1.7750 oh        1 MOL     -0.640048
    119 H53         1.7640   -2.0270   -0.1950 hn        1 MOL      0.047580
    120 H54         3.3300   -3.9490   -1.7430 h1        1 MOL      0.083619
    121 H55         4.4240   -1.9800   -2.6940 h1        1 MOL     -0.012385
    122 H56         2.3990   -0.6380   -1.4320 ho        1 MOL      0.495013
    123 H57         2.8380   -2.9430   -3.9820 hc        1 MOL      0.156485
    124 H58         1.4120   -2.4020   -2.9910 hc        1 MOL      0.156485
    125 H59         2.3060   -1.1810   -3.8680 hc        1 MOL      0.156485
    126 N11         5.8070   -3.5170   -0.8030 n         1 MOL     -0.287139
    127 C39         7.1510   -3.2480   -0.2830 c3        1 MOL     -0.108661
    128 C40         7.4040   -1.7090   -0.0720 c         1 MOL      0.261163
    129 O19         8.0470   -1.3030    0.9440 o         1 MOL     -0.469246
    130 C41         8.2720   -3.7370   -1.1160 c3        1 MOL      0.385073
    131 C42         8.4450   -5.1830   -1.2520 c3        1 MOL     -0.443107
    132 O20         8.1110   -3.0930   -2.3510 oh        1 MOL     -0.661511
    133 H60         5.7440   -4.0130   -1.6670 hn        1 MOL      0.270342
    134 H61         7.3120   -3.6380    0.7270 h1        1 MOL      0.121291
    135 H62         9.2400   -3.3810   -0.7580 h1        1 MOL      0.039675
    136 H63         8.7670   -3.5000   -2.9220 ho        1 MOL      0.407906
    137 H64         9.3830   -5.3820   -1.7790 hc        1 MOL      0.123160
    138 H65         8.6090   -5.5150   -0.2210 hc        1 MOL      0.123160
    139 H66         7.5180   -5.5330   -1.7070 hc        1 MOL      0.123160
    140 N12         6.8710   -0.8740   -0.9700 n         1 MOL     -0.138651
    141 C43         6.9080    0.5870   -0.9200 c3        1 MOL     -0.034075
    142 C44         6.1600    1.0980    0.2730 c         1 MOL      0.254164
    143 O21         6.6520    2.0220    0.9560 o         1 MOL     -0.525475
    144 C45         6.4210    1.1930   -2.1950 c3        1 MOL      0.054583
    145 C46         6.8560    2.6410   -2.3290 c3        1 MOL     -0.083488
    146 C47         6.8850    3.3590   -3.6940 c3        1 MOL      0.186819
    147 C48         6.9110    4.8930   -3.7280 c3        1 MOL      0.042070
    148 N13         7.0070    5.3160   -5.1670 n4        1 MOL     -0.308476
    149 H67         6.6630   -1.3710   -1.8290 hn        1 MOL      0.214349
    150 H68         7.9300    0.9450   -0.7940 h1        1 MOL      0.108124
    151 H69         5.3300    1.1840   -2.1830 hc        1 MOL     -0.010811
    152 H70         6.8090    0.6710   -3.0670 hc        1 MOL     -0.010811
    153 H71         7.8970    2.6640   -2.0180 hc        1 MOL      0.019639
    154 H72         6.2710    3.2590   -1.6440 hc        1 MOL      0.019639
    155 H73         5.9450    3.1260   -4.2020 hc        1 MOL     -0.022561
    156 H74         7.6750    2.9320   -4.3190 hc        1 MOL     -0.022561
    157 H75         7.7420    5.2520   -3.1150 hx        1 MOL      0.062243
    158 H76         5.9930    5.3400   -3.3470 hx        1 MOL      0.062243
    159 H77         7.8230    4.9260   -5.6040 hn        1 MOL      0.270740
    160 H78         6.1710    5.1310   -5.7040 hn        1 MOL      0.270740
    161 H79         7.1000    6.3260   -5.1870 hn        1 MOL      0.270740
    162 N14         5.0450    0.5020    0.6170 n         1 MOL      0.124743
    163 C49         4.1540    1.0000    1.6820 c3        1 MOL     -0.153855
    164 C50         4.6900    0.7090    3.0860 c         1 MOL      0.395827
    165 O22         4.6090    1.5100    4.0040 o         1 MOL     -0.516013
    166 C51         2.7520    0.3700    1.4420 c3        1 MOL      0.173591
    167 C52         1.9780    1.2340    0.4160 c3        1 MOL     -0.465581
    168 C53         0.6550    0.5790   -0.0360 c         1 MOL      1.096753
    169 O23        -0.3830    1.2950   -0.1470 o         1 MOL     -0.860121
    170 O24         0.7580   -0.5740   -0.5440 o         1 MOL     -0.860121
    171 H80         4.6930   -0.1600   -0.0650 hn        1 MOL      0.116006
    172 H81         3.9550    2.0700    1.6320 h1        1 MOL      0.086506
    173 H82         2.1760    0.2600    2.3710 hc        1 MOL      0.023990
    174 H83         2.9050   -0.6330    1.0530 hc        1 MOL      0.023990
    175 H84         2.4970    1.4840   -0.5060 hc        1 MOL      0.082733
    176 H85         1.7550    2.1610    0.9320 hc        1 MOL      0.082733
    177 N15         5.4670   -0.4050    3.2350 n         1 MOL     -0.065741
    178 C54         6.2090   -0.7300    4.4830 c3        1 MOL     -0.376833
    179 H86         5.5210   -1.1550    5.2140 h1        1 MOL      0.137439
    180 H87         6.9960   -1.4520    4.2610 h1        1 MOL      0.137439
    181 H88         6.6540    0.1780    4.8900 h1        1 MOL      0.137439
    182 H89         5.3840   -1.1220    2.5330 hn        1 MOL      0.129102
    183 Ca1        -1.8660   -0.2110   -1.5420 Ca        1 MOL      1.751650
    184 O25        -1.8220   -1.8270   -3.8440 oh        1 MOL     -0.807816
    185 H90        -1.1600   -1.4690   -4.4350 ho        1 MOL      0.387389
    186 H91        -2.5760   -1.2460   -3.9540 ho        1 MOL      0.387389
    187 O26         0.0400    0.4810   -3.3680 oh        1 MOL     -0.807816
    188 H92         0.9010    0.8940   -3.4120 ho        1 MOL      0.387389
    189 H93        -0.1260    0.1760   -4.2570 ho        1 MOL      0.387389
@<TRIPOS>BOND
     1    1    2 1   
     2    1    4 1   
     3    1    5 1   
     4    1    6 1   
     5    2    3 2   
     6    2    7 1   
     7    7    8 1   
     8    7   15 1   
     9    8    9 1   
    10    8   11 1   
    11    8   16 1   
    12    9   10 2   
    13    9   19 1   
    14   11   12 1   
    15   11   17 1   
    16   11   18 1   
    17   12   13 1   
    18   12   14 1   
    19   19   20 1   
    20   19   28 1   
    21   20   21 1   
    22   20   23 1   
    23   20   29 1   
    24   21   22 2   
    25   21   41 1   
    26   23   24 1   
    27   23   30 1   
    28   23   31 1   
    29   24   25 1   
    30   24   32 1   
    31   24   33 1   
    32   25   26 1   
    33   25   34 1   
    34   25   35 1   
    35   26   27 1   
    36   26   36 1   
    37   26   37 1   
    38   27   38 1   
    39   27   39 1   
    40   27   40 1   
    41   41   42 1   
    42   41   49 1   
    43   42   43 1   
    44   42   45 1   
    45   42   50 1   
    46   43   44 2   
    47   43   53 1   
    48   45   46 1   
    49   45   51 1   
    50   45   52 1   
    51   46   47 1   
    52   46   48 1   
    53   53   54 1   
    54   53   57 1   
    55   54   55 1   
    56   54   58 1   
    57   54   59 1   
    58   55   56 2   
    59   55   60 1   
    60   60   61 1   
    61   60   68 1   
    62   61   62 1   
    63   61   64 1   
    64   61   69 1   
    65   62   63 2   
    66   62   72 1   
    67   64   65 1   
    68   64   70 1   
    69   64   71 1   
    70   65   66 1   
    71   65   67 1   
    72   72   73 1   
    73   72   76 1   
    74   73   74 1   
    75   73   77 1   
    76   73   78 1   
    77   74   75 2   
    78   74   79 1   
    79   79   80 1   
    80   79   86 1   
    81   80   81 1   
    82   80   83 1   
    83   80   87 1   
    84   81   82 2   
    85   81   93 1   
    86   83   84 1   
    87   83   85 1   
    88   83   88 1   
    89   84   90 1   
    90   84   91 1   
    91   84   92 1   
    92   85   89 1   
    93   93   94 1   
    94   93  101 1   
    95   94   95 1   
    96   94   97 1   
    97   94  102 1   
    98   95   96 2   
    99   95  112 1   
   100   97   98 1   
   101   97   99 1   
   102   97  103 1   
   103   98  100 1   
   104   98  104 1   
   105   98  105 1   
   106   99  106 1   
   107   99  107 1   
   108   99  108 1   
   109  100  109 1   
   110  100  110 1   
   111  100  111 1   
   112  112  113 1   
   113  112  119 1   
   114  113  114 1   
   115  113  116 1   
   116  113  120 1   
   117  114  115 2   
   118  114  126 1   
   119  116  117 1   
   120  116  118 1   
   121  116  121 1   
   122  117  123 1   
   123  117  124 1   
   124  117  125 1   
   125  118  122 1   
   126  126  127 1   
   127  126  133 1   
   128  127  128 1   
   129  127  130 1   
   130  127  134 1   
   131  128  129 2   
   132  128  140 1   
   133  130  131 1   
   134  130  132 1   
   135  130  135 1   
   136  131  137 1   
   137  131  138 1   
   138  131  139 1   
   139  132  136 1   
   140  140  141 1   
   141  140  149 1   
   142  141  142 1   
   143  141  144 1   
   144  141  150 1   
   145  142  143 2   
   146  142  162 1   
   147  144  145 1   
   148  144  151 1   
   149  144  152 1   
   150  145  146 1   
   151  145  153 1   
   152  145  154 1   
   153  146  147 1   
   154  146  155 1   
   155  146  156 1   
   156  147  148 1   
   157  147  157 1   
   158  147  158 1   
   159  148  159 1   
   160  148  160 1   
   161  148  161 1   
   162  162  163 1   
   163  162  171 1   
   164  163  164 1   
   165  163  166 1   
   166  163  172 1   
   167  164  165 2   
   168  164  177 1   
   169  166  167 1   
   170  166  173 1   
   171  166  174 1   
   172  167  168 1   
   173  167  175 1   
   174  167  176 1   
   175  168  169 1   
   176  168  170 1   
   177  177  178 1   
   178  177  182 1   
   179  178  179 1   
   180  178  180 1   
   181  178  181 1   
   182  184  185 1   
   183  184  186 1   
   184  187  188 1   
   185  187  189 1   
@<TRIPOS>SUBSTRUCTURE
     1 MOL         1 TEMP              0 ****  ****    0 ROOT
