@<TRIPOS>MOLECULE
MOL
  189   185     1     0     0
SMALL
resp


@<TRIPOS>ATOM
      1 C1         -0.5190    2.9450    6.1120 c3        1 MOL     -0.392505
      2 C2         -0.5860    2.4300    4.6390 c         1 MOL      0.856619
      3 O1          0.2980    2.6320    3.8630 o         1 MOL     -0.651676
      4 H1         -0.9060    2.1780    6.7820 hc        1 MOL      0.092910
      5 H2          0.5160    3.1670    6.3730 hc        1 MOL      0.092910
      6 H3         -1.1210    3.8480    6.2090 hc        1 MOL      0.092910
      7 N1         -1.6850    1.8000    4.2240 n         1 MOL     -0.794228
      8 C3         -2.0790    1.5850    2.7980 c3        1 MOL      0.404678
      9 C4         -2.5660    2.9420    2.1610 c         1 MOL      0.389266
     10 O2         -3.4010    3.6100    2.7570 o         1 MOL     -0.544856
     11 C5         -3.2310    0.6140    2.7020 c3        1 MOL     -0.420642
     12 C6         -3.9110    0.4680    1.3230 c         1 MOL      0.778197
     13 O3         -5.1360    0.3250    1.3360 o         1 MOL     -0.669666
     14 O4         -3.2410    0.5030    0.2400 o         1 MOL     -0.669666
     15 H4         -2.2890    1.5110    4.9830 hn        1 MOL      0.358589
     16 H5         -1.2340    1.1220    2.2890 h1        1 MOL     -0.015068
     17 H6         -3.9340    1.1000    3.3800 hc        1 MOL      0.087526
     18 H7         -2.9040   -0.3630    3.0510 hc        1 MOL      0.087526
     19 N2         -2.0500    3.2500    0.9670 n         1 MOL     -0.066144
     20 C7         -2.1880    4.5550    0.3160 c3        1 MOL      0.044338
     21 C8         -3.1050    4.5800   -0.9140 c         1 MOL      0.486030
     22 O5         -3.6410    5.6210   -1.1370 o         1 MOL     -0.574328
     23 C9         -0.7970    5.1660    0.1070 c3        1 MOL     -0.044215
     24 C10         0.0880    5.2220    1.3080 c3        1 MOL      0.073530
     25 C11        -0.5220    6.0600    2.4100 c3        1 MOL     -0.091677
     26 C12         0.4010    6.7600    3.4150 c3        1 MOL      0.055547
     27 N3         -0.3610    7.4680    4.4800 n4        1 MOL     -0.314105
     28 H8         -1.4220    2.6080    0.5130 hn        1 MOL      0.087467
     29 H9         -2.6690    5.1890    1.0560 h1        1 MOL      0.011589
     30 H10        -0.8940    6.1900   -0.2590 hc        1 MOL      0.010656
     31 H11        -0.3140    4.5880   -0.6810 hc        1 MOL      0.010656
     32 H12         0.9950    5.7120    0.9430 hc        1 MOL      0.013402
     33 H13         0.2850    4.1970    1.5970 hc        1 MOL      0.013402
     34 H14        -1.2380    5.4650    2.9740 hc        1 MOL      0.035469
     35 H15        -1.1530    6.8430    1.9820 hc        1 MOL      0.035469
     36 H16         1.0740    7.4030    2.8430 hx        1 MOL      0.071625
     37 H17         1.0580    6.0050    3.8610 hx        1 MOL      0.071625
     38 H18        -1.0090    8.0940    4.0150 hn        1 MOL      0.315269
     39 H19        -0.9250    6.7830    4.9560 hn        1 MOL      0.315269
     40 H20         0.1330    8.0450    5.1450 hn        1 MOL      0.315269
     41 N4         -3.3010    3.4720   -1.6010 n         1 MOL     -0.237767
     42 C13        -4.1540    3.2730   -2.7390 c3        1 MOL     -0.035359
     43 C14        -5.3780    2.3580   -2.4570 c         1 MOL      0.390783
     44 O6         -6.0650    1.8830   -3.3910 o         1 MOL     -0.512184
     45 C15        -3.3710    2.9300   -4.0630 c3        1 MOL     -0.183811
     46 C16        -2.4730    1.7640   -3.9220 c         1 MOL      0.763779
     47 O7         -2.7530    0.9040   -3.0260 o         1 MOL     -0.727715
     48 O8         -1.4540    1.7510   -4.6650 o         1 MOL     -0.727715
     49 H21        -2.8230    2.6670   -1.2040 hn        1 MOL      0.142302
     50 H22        -4.5460    4.2760   -2.8770 h1        1 MOL      0.105435
     51 H23        -2.7260    3.7760   -4.2960 hc        1 MOL      0.054445
     52 H24        -3.8960    2.9160   -5.0090 hc        1 MOL      0.054445
     53 N5         -5.7270    2.1740   -1.1870 n         1 MOL     -0.280523
     54 C17        -7.0330    1.6890   -0.7430 c3        1 MOL     -0.043080
     55 C18        -7.4680    0.2660   -1.0980 c         1 MOL      0.371304
     56 O9         -8.6680   -0.0750   -1.1270 o         1 MOL     -0.568489
     57 H25        -5.1710    2.5490   -0.4250 hn        1 MOL      0.232736
     58 H26        -7.7690    2.4400   -1.0400 h1        1 MOL      0.075430
     59 H27        -7.0170    1.8390    0.3380 h1        1 MOL      0.075430
     60 N6         -6.4760   -0.5540   -1.4990 n         1 MOL     -0.034803
     61 C19        -6.7250   -1.8920   -1.9800 c3        1 MOL     -0.071045
     62 C20        -6.5610   -2.9750   -0.8010 c         1 MOL      0.397060
     63 O10        -6.6170   -4.1760   -1.0710 o         1 MOL     -0.532583
     64 C21        -5.7560   -2.2710   -3.0740 c3        1 MOL     -0.183955
     65 C22        -4.3060   -2.1130   -2.6700 c         1 MOL      0.767569
     66 O11        -3.4110   -2.1020   -3.5260 o         1 MOL     -0.735855
     67 O12        -3.9910   -2.0680   -1.4750 o         1 MOL     -0.735855
     68 H28        -5.5190   -0.2330   -1.4680 hn        1 MOL      0.192132
     69 H29        -7.7540   -1.9150   -2.3430 h1        1 MOL      0.120857
     70 H30        -5.9480   -1.5620   -3.8800 hc        1 MOL      0.055062
     71 H31        -5.8760   -3.2850   -3.4340 hc        1 MOL      0.055062
     72 N7         -6.4260   -2.5500    0.4430 n         1 MOL     -0.224814
     73 C23        -6.4830   -3.4510    1.5720 c3        1 MOL     -0.184999
     74 C24        -5.1420   -4.1170    1.9150 c         1 MOL      0.525561
     75 O13        -5.1840   -5.0500    2.7200 o         1 MOL     -0.543661
     76 H32        -6.2330   -1.5570    0.5620 hn        1 MOL      0.216323
     77 H33        -7.2280   -4.2410    1.4370 h1        1 MOL      0.115005
     78 H34        -6.7650   -2.8480    2.4320 h1        1 MOL      0.115005
     79 N8         -3.9880   -3.6100    1.3740 n         1 MOL     -0.288521
     80 C25        -2.6550   -4.2090    1.4470 c3        1 MOL     -0.169411
     81 C26        -1.5660   -3.1280    1.5090 c         1 MOL      0.577089
     82 O14        -1.7010   -1.9490    0.9700 o         1 MOL     -0.648520
     83 C27        -2.3160   -5.0570    0.2170 c3        1 MOL      0.359882
     84 C28        -3.0760   -6.3890    0.2620 c3        1 MOL     -0.478774
     85 O15        -2.7000   -4.5190   -1.0550 oh        1 MOL     -0.598819
     86 H35        -4.0570   -2.7190    0.9070 hn        1 MOL      0.252905
     87 H36        -2.4430   -4.7930    2.3380 h1        1 MOL      0.105354
     88 H37        -1.2340   -5.2120    0.1890 h1        1 MOL      0.040402
     89 H38        -3.5760   -4.1210   -1.0020 ho        1 MOL      0.418041
     90 H39        -2.9100   -7.0650   -0.5720 hc        1 MOL      0.130230
     91 H40        -2.9650   -6.9390    1.2000 hc        1 MOL      0.130230
     92 H41        -4.1200   -6.0730    0.2530 hc        1 MOL      0.130230
     93 N9         -0.3540   -3.5370    1.9590 n         1 MOL     -0.437477
     94 C29         0.9180   -2.7800    2.0210 c3        1 MOL      0.005264
     95 C30         1.9870   -3.4670    1.1050 c         1 MOL      0.409053
     96 O16         2.3040   -4.6130    1.2950 o         1 MOL     -0.537094
     97 C31         1.4020   -2.6890    3.4860 c3        1 MOL      0.067392
     98 C32         0.4670   -1.7200    4.2950 c3        1 MOL      0.103828
     99 C33         2.8130   -2.2000    3.5260 c3        1 MOL     -0.377752
    100 C34         0.4050   -1.9970    5.7830 c3        1 MOL     -0.299894
    101 H42        -0.3980   -4.4180    2.4400 hn        1 MOL      0.262668
    102 H43         0.7970   -1.7880    1.5840 h1        1 MOL      0.104383
    103 H44         1.2490   -3.6540    3.9680 hc        1 MOL      0.054322
    104 H45        -0.5480   -1.9330    3.9640 hc        1 MOL      0.025347
    105 H46         0.7210   -0.6910    4.0570 hc        1 MOL      0.025347
    106 H47         3.3840   -3.0320    3.1270 hc        1 MOL      0.085351
    107 H48         2.9900   -1.3100    2.9320 hc        1 MOL      0.085351
    108 H49         3.1840   -1.9850    4.5260 hc        1 MOL      0.085351
    109 H50         1.3490   -1.6940    6.2320 hc        1 MOL      0.068152
    110 H51        -0.4270   -1.4270    6.2000 hc        1 MOL      0.068152
    111 H52         0.3480   -3.0740    5.9580 hc        1 MOL      0.068152
    112 N10         2.5600   -2.6830    0.2070 n         1 MOL     -0.031833
    113 C35         3.7280   -2.9460   -0.6650 c3        1 MOL     -0.022753
    114 C36         5.0700   -2.6480    0.0300 c         1 MOL      0.229019
    115 O17         5.1780   -1.7940    0.9260 o         1 MOL     -0.298177
    116 C37         3.5850   -2.1270   -1.9920 c3        1 MOL      0.288385
    117 C38         2.5320   -2.8160   -2.8610 c3        1 MOL     -0.439961
    118 O18         3.0650   -0.8170   -1.6790 oh        1 MOL     -0.605179
    119 H53         2.1880   -1.7420    0.1880 hn        1 MOL      0.175920
    120 H54         3.6850   -3.9950   -0.9430 h1        1 MOL      0.053425
    121 H55         4.5710   -2.0300   -2.4420 h1        1 MOL      0.032483
    122 H56         2.1510   -0.8460   -1.3760 ho        1 MOL      0.349783
    123 H57         1.6660   -3.0890   -2.2550 hc        1 MOL      0.110825
    124 H58         2.2320   -2.1180   -3.6430 hc        1 MOL      0.110825
    125 H59         3.0760   -3.6870   -3.2430 hc        1 MOL      0.110825
    126 N11         6.1710   -3.0300   -0.5840 n         1 MOL     -0.178388
    127 C39         7.5540   -2.5270   -0.2230 c3        1 MOL     -0.322121
    128 C40         7.7420   -0.9880   -0.5450 c         1 MOL      0.502215
    129 O19         8.5090   -0.3040    0.1580 o         1 MOL     -0.477631
    130 C41         8.6930   -3.3490   -0.9190 c3        1 MOL      0.281175
    131 C42         8.6540   -4.8600   -0.5950 c3        1 MOL     -0.301013
    132 O20         8.5070   -3.3500   -2.3150 oh        1 MOL     -0.620364
    133 H60         5.9390   -3.5340   -1.4210 hn        1 MOL      0.260151
    134 H61         7.5590   -2.6380    0.8590 h1        1 MOL      0.217512
    135 H62         9.6730   -2.9400   -0.6910 h1        1 MOL      0.061594
    136 H63         9.3440   -3.6420   -2.6790 ho        1 MOL      0.418684
    137 H64         7.7130   -5.2880   -0.9320 hc        1 MOL      0.085313
    138 H65         9.4900   -5.3500   -1.0780 hc        1 MOL      0.085313
    139 H66         8.6520   -5.0320    0.4880 hc        1 MOL      0.085313
    140 N12         6.9270   -0.3570   -1.4520 n         1 MOL     -0.369637
    141 C43         6.6600    1.0630   -1.5520 c3        1 MOL      0.005069
    142 C44         5.8950    1.7820   -0.4450 c         1 MOL      0.399927
    143 O21         6.2140    2.8990   -0.1120 o         1 MOL     -0.526589
    144 C45         6.2210    1.5360   -2.9610 c3        1 MOL     -0.048043
    145 C46         6.6650    2.9560   -3.3710 c3        1 MOL      0.186591
    146 C47         6.0800    3.4680   -4.6750 c3        1 MOL     -0.294701
    147 C48         4.5880    3.9700   -4.5630 c3        1 MOL      0.062672
    148 N13         4.0390    4.3460   -5.8930 n4        1 MOL     -0.283284
    149 H67         6.4760   -1.0290   -2.0560 hn        1 MOL      0.227173
    150 H68         7.6350    1.5210   -1.3950 h1        1 MOL      0.083639
    151 H69         5.1440    1.3950   -3.1180 hc        1 MOL      0.026087
    152 H70         6.7190    0.9380   -3.7280 hc        1 MOL      0.026087
    153 H71         7.7570    3.0040   -3.4070 hc        1 MOL     -0.002883
    154 H72         6.3160    3.6420   -2.5960 hc        1 MOL     -0.002883
    155 H73         6.2750    2.6900   -5.4090 hc        1 MOL      0.095230
    156 H74         6.5760    4.3920   -4.9570 hc        1 MOL      0.095230
    157 H75         4.4880    4.8980   -3.9980 hx        1 MOL      0.098496
    158 H76         3.9290    3.2030   -4.1540 hx        1 MOL      0.098496
    159 H77         4.7090    4.8470   -6.4590 hn        1 MOL      0.306077
    160 H78         3.8150    3.5380   -6.4670 hn        1 MOL      0.306077
    161 H79         3.1790    4.8710   -5.9080 hn        1 MOL      0.306077
    162 N14         4.9290    1.1330    0.1580 n         1 MOL     -0.080633
    163 C49         4.1450    1.6520    1.2930 c3        1 MOL     -0.205025
    164 C50         4.7010    1.3910    2.6930 c         1 MOL      0.564999
    165 O22         4.5280    2.1450    3.6410 o         1 MOL     -0.558187
    166 C51         2.6980    1.1130    1.1770 c3        1 MOL     -0.061111
    167 C52         1.8550    1.6650    0.0040 c3        1 MOL     -0.015922
    168 C53         0.6430    0.8440   -0.3800 c         1 MOL      0.656122
    169 O23         0.7550   -0.3930   -0.3680 o         1 MOL     -0.673649
    170 O24        -0.4040    1.4220   -0.6480 o         1 MOL     -0.673649
    171 H80         4.7400    0.2260   -0.2280 hn        1 MOL      0.190812
    172 H81         4.1970    2.7380    1.2790 h1        1 MOL      0.095262
    173 H82         2.2490    1.2230    2.1570 hc        1 MOL      0.085117
    174 H83         2.7770    0.0340    1.1020 hc        1 MOL      0.085117
    175 H84         2.4910    1.8440   -0.8580 hc        1 MOL     -0.016571
    176 H85         1.5420    2.6700    0.2740 hc        1 MOL     -0.016571
    177 N15         5.4790    0.2860    2.7360 n         1 MOL     -0.210425
    178 C54         6.0710   -0.2320    3.9490 c3        1 MOL     -0.191731
    179 H86         5.4250   -1.0040    4.3670 h1        1 MOL      0.087082
    180 H87         7.0490   -0.6600    3.7230 h1        1 MOL      0.087082
    181 H88         6.1860    0.5750    4.6720 h1        1 MOL      0.087082
    182 H89         5.4390   -0.3110    1.9260 hn        1 MOL      0.103732
    183 Ca1        -1.7800   -0.6890   -1.4240 Ca        1 MOL      1.750268
    184 O25        -0.0520   -0.5070   -3.4770 oh        1 MOL     -0.881898
    185 H90        -0.4890   -0.3680   -4.3240 ho        1 MOL      0.417913
    186 H91         0.8650   -0.3170   -3.6440 ho        1 MOL      0.417913
    187 O26        -0.7190   -3.0290   -1.8580 oh        1 MOL     -0.881898
    188 H92        -1.3280   -3.7690   -1.8460 ho        1 MOL      0.417913
    189 H93        -0.3160   -3.0730   -2.7200 ho        1 MOL      0.417913
@<TRIPOS>BOND
     1    1    2 1   
     2    1    4 1   
     3    1    5 1   
     4    1    6 1   
     5    2    3 2   
     6    2    7 1   
     7    7    8 1   
     8    7   15 1   
     9    8    9 1   
    10    8   11 1   
    11    8   16 1   
    12    9   10 2   
    13    9   19 1   
    14   11   12 1   
    15   11   17 1   
    16   11   18 1   
    17   12   13 1   
    18   12   14 1   
    19   19   20 1   
    20   19   28 1   
    21   20   21 1   
    22   20   23 1   
    23   20   29 1   
    24   21   22 2   
    25   21   41 1   
    26   23   24 1   
    27   23   30 1   
    28   23   31 1   
    29   24   25 1   
    30   24   32 1   
    31   24   33 1   
    32   25   26 1   
    33   25   34 1   
    34   25   35 1   
    35   26   27 1   
    36   26   36 1   
    37   26   37 1   
    38   27   38 1   
    39   27   39 1   
    40   27   40 1   
    41   41   42 1   
    42   41   49 1   
    43   42   43 1   
    44   42   45 1   
    45   42   50 1   
    46   43   44 2   
    47   43   53 1   
    48   45   46 1   
    49   45   51 1   
    50   45   52 1   
    51   46   47 1   
    52   46   48 1   
    53   53   54 1   
    54   53   57 1   
    55   54   55 1   
    56   54   58 1   
    57   54   59 1   
    58   55   56 2   
    59   55   60 1   
    60   60   61 1   
    61   60   68 1   
    62   61   62 1   
    63   61   64 1   
    64   61   69 1   
    65   62   63 2   
    66   62   72 1   
    67   64   65 1   
    68   64   70 1   
    69   64   71 1   
    70   65   66 1   
    71   65   67 1   
    72   72   73 1   
    73   72   76 1   
    74   73   74 1   
    75   73   77 1   
    76   73   78 1   
    77   74   75 2   
    78   74   79 1   
    79   79   80 1   
    80   79   86 1   
    81   80   81 1   
    82   80   83 1   
    83   80   87 1   
    84   81   82 2   
    85   81   93 1   
    86   83   84 1   
    87   83   85 1   
    88   83   88 1   
    89   84   90 1   
    90   84   91 1   
    91   84   92 1   
    92   85   89 1   
    93   93   94 1   
    94   93  101 1   
    95   94   95 1   
    96   94   97 1   
    97   94  102 1   
    98   95   96 2   
    99   95  112 1   
   100   97   98 1   
   101   97   99 1   
   102   97  103 1   
   103   98  100 1   
   104   98  104 1   
   105   98  105 1   
   106   99  106 1   
   107   99  107 1   
   108   99  108 1   
   109  100  109 1   
   110  100  110 1   
   111  100  111 1   
   112  112  113 1   
   113  112  119 1   
   114  113  114 1   
   115  113  116 1   
   116  113  120 1   
   117  114  115 2   
   118  114  126 1   
   119  116  117 1   
   120  116  118 1   
   121  116  121 1   
   122  117  123 1   
   123  117  124 1   
   124  117  125 1   
   125  118  122 1   
   126  126  127 1   
   127  126  133 1   
   128  127  128 1   
   129  127  130 1   
   130  127  134 1   
   131  128  129 2   
   132  128  140 1   
   133  130  131 1   
   134  130  132 1   
   135  130  135 1   
   136  131  137 1   
   137  131  138 1   
   138  131  139 1   
   139  132  136 1   
   140  140  141 1   
   141  140  149 1   
   142  141  142 1   
   143  141  144 1   
   144  141  150 1   
   145  142  143 2   
   146  142  162 1   
   147  144  145 1   
   148  144  151 1   
   149  144  152 1   
   150  145  146 1   
   151  145  153 1   
   152  145  154 1   
   153  146  147 1   
   154  146  155 1   
   155  146  156 1   
   156  147  148 1   
   157  147  157 1   
   158  147  158 1   
   159  148  159 1   
   160  148  160 1   
   161  148  161 1   
   162  162  163 1   
   163  162  171 1   
   164  163  164 1   
   165  163  166 1   
   166  163  172 1   
   167  164  165 2   
   168  164  177 1   
   169  166  167 1   
   170  166  173 1   
   171  166  174 1   
   172  167  168 1   
   173  167  175 1   
   174  167  176 1   
   175  168  169 1   
   176  168  170 1   
   177  177  178 1   
   178  177  182 1   
   179  178  179 1   
   180  178  180 1   
   181  178  181 1   
   182  184  185 1   
   183  184  186 1   
   184  187  188 1   
   185  187  189 1   
@<TRIPOS>SUBSTRUCTURE
     1 MOL         1 TEMP              0 ****  ****    0 ROOT
