@<TRIPOS>MOLECULE
MOL
  175   173     1     0     0
SMALL
resp


@<TRIPOS>ATOM
      1 C1          0.2600    4.2870    5.5720 c3        1 MOL     -0.372269
      2 C2         -0.3290    4.0070    4.1590 c         1 MOL      0.711723
      3 O1          0.4580    4.0670    3.1920 o         1 MOL     -0.542994
      4 H1          0.3250    5.3630    5.7310 hc        1 MOL      0.091099
      5 H2         -0.3880    3.8460    6.3300 hc        1 MOL      0.091099
      6 H3          1.2560    3.8500    5.6450 hc        1 MOL      0.091099
      7 N1         -1.6320    3.7020    4.0600 n         1 MOL     -0.661367
      8 C3         -2.2360    3.5390    2.7150 c3        1 MOL      0.167137
      9 C4         -2.2180    4.8560    1.8700 c         1 MOL      0.606289
     10 O2         -2.3800    5.9750    2.3340 o         1 MOL     -0.568156
     11 C5         -3.5920    2.8650    2.9090 c3        1 MOL     -0.138284
     12 C6         -4.2360    2.6610    1.5190 c         1 MOL      0.508743
     13 O3         -5.2460    3.3560    1.2940 o         1 MOL     -0.595657
     14 O4         -3.7070    1.8530    0.7040 o         1 MOL     -0.595657
     15 H4         -2.2610    3.6610    4.8430 hn        1 MOL      0.339667
     16 H5         -1.6230    2.8840    2.0970 h1        1 MOL      0.039624
     17 H6         -4.2690    3.4990    3.4830 hc        1 MOL      0.011167
     18 H7         -3.4510    1.9110    3.4030 hc        1 MOL      0.011167
     19 N2         -1.9800    4.6650    0.5380 n         1 MOL     -0.602868
     20 C7         -2.3030    5.6230   -0.4960 c3        1 MOL      0.602761
     21 C8         -3.1230    5.1560   -1.7570 c         1 MOL      0.212320
     22 O5         -3.0690    5.7920   -2.7400 o         1 MOL     -0.507703
     23 C9         -1.0610    6.3340   -0.7680 c3        1 MOL     -0.147105
     24 H8         -1.6920    3.7340    0.2970 hn        1 MOL      0.294791
     25 H9         -2.8530    6.4510   -0.0580 h1        1 MOL     -0.056837
     26 H10        -1.2410    7.0510   -1.5750 hc        1 MOL      0.009095
     27 H11        -0.7100    6.8470    0.1230 hc        1 MOL      0.009095
     28 H12        -0.2700    5.6570   -1.0940 hc        1 MOL      0.009095
     29 N3         -3.7270    3.9830   -1.7360 n         1 MOL      0.018790
     30 C10        -4.6170    3.5540   -2.8280 c3        1 MOL     -0.024830
     31 C11        -5.8820    2.6530   -2.4910 c         1 MOL      0.349272
     32 O6         -6.8680    2.7970   -3.2420 o         1 MOL     -0.543771
     33 C12        -3.7430    2.7880   -3.8730 c3        1 MOL      0.006621
     34 C13        -2.9040    1.6170   -3.3920 c         1 MOL      0.604700
     35 O7         -3.3500    0.9800   -2.4390 o         1 MOL     -0.680889
     36 O8         -1.7370    1.4980   -3.8360 o         1 MOL     -0.680889
     37 H13        -3.7570    3.4890   -0.8560 hn        1 MOL     -0.072355
     38 H14        -4.9990    4.4220   -3.3700 h1        1 MOL      0.077648
     39 H15        -3.1420    3.4720   -4.4740 hc        1 MOL     -0.006859
     40 H16        -4.4160    2.3910   -4.6310 hc        1 MOL     -0.006859
     41 N4         -5.9560    1.9800   -1.3100 n         1 MOL     -0.058094
     42 C14        -7.1770    1.3350   -0.7390 c3        1 MOL     -0.357953
     43 C15        -7.2440   -0.1620   -1.1620 c         1 MOL      0.611547
     44 O9         -8.2600   -0.8000   -0.9770 o         1 MOL     -0.606178
     45 H17        -5.1220    1.9100   -0.7390 hn        1 MOL      0.203737
     46 H18        -8.0350    1.9500   -1.0140 h1        1 MOL      0.148803
     47 H19        -7.0840    1.4310    0.3380 h1        1 MOL      0.148803
     48 N5         -6.1860   -0.7720   -1.7040 n         1 MOL     -0.260271
     49 C16        -6.1790   -2.1840   -2.0480 c3        1 MOL     -0.108161
     50 C17        -6.4050   -3.1740   -0.9180 c         1 MOL      0.541510
     51 O10        -6.8070   -4.2590   -1.2130 o         1 MOL     -0.541423
     52 C18        -5.0380   -2.5260   -3.0700 c3        1 MOL     -0.039390
     53 C19        -3.7280   -2.4300   -2.4760 c         1 MOL      0.596632
     54 N6         -2.7980   -3.0060   -3.2440 n         1 MOL     -0.670268
     55 O11        -3.4530   -1.9680   -1.3680 o         1 MOL     -0.599299
     56 H20        -5.3150   -0.2890   -1.5460 hn        1 MOL      0.095964
     57 H21        -7.0570   -2.2130   -2.7010 h1        1 MOL      0.111674
     58 H22        -5.0320   -1.8370   -3.9170 hc        1 MOL      0.044331
     59 H23        -5.1970   -3.4920   -3.5480 hc        1 MOL      0.044331
     60 H24        -3.0560   -3.2790   -4.1850 hn        1 MOL      0.338997
     61 H25        -1.8420   -2.9750   -2.9190 hn        1 MOL      0.338997
     62 N7         -6.3020   -2.6920    0.3190 n         1 MOL     -0.142186
     63 C20        -6.4230   -3.5260    1.4790 c3        1 MOL     -0.337994
     64 C21        -5.0490   -4.2950    1.8360 c         1 MOL      0.604690
     65 O12        -5.0570   -5.1900    2.6190 o         1 MOL     -0.588493
     66 H26        -6.1250   -1.7300    0.5160 hn        1 MOL      0.205704
     67 H27        -7.2040   -4.2810    1.3720 h1        1 MOL      0.128688
     68 H28        -6.5750   -2.8950    2.3540 h1        1 MOL      0.128688
     69 N8         -3.9480   -3.8770    1.2750 n         1 MOL     -0.358489
     70 C22        -2.5880   -4.4760    1.4420 c3        1 MOL     -0.045521
     71 C23        -1.5120   -3.4620    1.3630 c         1 MOL      0.546812
     72 O13        -1.6600   -2.4380    0.6680 o         1 MOL     -0.496368
     73 C24        -2.2720   -5.6700    0.4950 c3        1 MOL      0.578747
     74 C25        -3.0270   -6.9440    0.8420 c3        1 MOL     -0.576117
     75 O14        -2.6590   -5.3220   -0.7960 oh        1 MOL     -0.621986
     76 H29        -4.0090   -3.0620    0.6650 hn        1 MOL      0.237480
     77 H30        -2.4580   -4.9370    2.4180 h1        1 MOL      0.043255
     78 H31        -1.2140   -5.8470    0.6440 h1        1 MOL     -0.083972
     79 H32        -2.2670   -4.4670   -0.9910 ho        1 MOL      0.349706
     80 H33        -2.6370   -7.7450    0.2170 hc        1 MOL      0.150107
     81 H34        -2.9630   -7.1920    1.9030 hc        1 MOL      0.150107
     82 H35        -4.0540   -6.7730    0.5200 hc        1 MOL      0.150107
     83 N9         -0.4660   -3.6470    2.1540 n         1 MOL     -0.480942
     84 C26         0.7670   -2.8290    2.0590 c3        1 MOL      0.051714
     85 C27         1.4680   -3.1700    0.7480 c         1 MOL      0.347563
     86 O15         1.6690   -4.3750    0.3990 o         1 MOL     -0.537281
     87 C28         1.6770   -3.1740    3.2700 c3        1 MOL      0.043984
     88 C29         1.1380   -2.7660    4.6660 c3        1 MOL     -0.048280
     89 C30         3.1420   -2.7550    3.2190 c3        1 MOL     -0.172436
     90 C31         1.0250   -1.2900    4.8930 c3        1 MOL     -0.161968
     91 H36        -0.3880   -4.4690    2.7370 hn        1 MOL      0.288774
     92 H37         0.6640   -1.7430    2.0670 h1        1 MOL      0.199968
     93 H38         1.6810   -4.2560    3.4050 hc        1 MOL     -0.002145
     94 H39         1.7940   -3.1710    5.4410 hc        1 MOL      0.020102
     95 H40         0.1320   -3.1770    4.7840 hc        1 MOL      0.020102
     96 H41         3.6880   -2.9800    4.1360 hc        1 MOL      0.052467
     97 H42         3.6970   -3.2430    2.4170 hc        1 MOL      0.052467
     98 H43         3.0760   -1.6730    3.2230 hc        1 MOL      0.052467
     99 H44         1.9720   -0.7670    4.7010 hc        1 MOL      0.035427
    100 H45         0.3060   -0.8110    4.2340 hc        1 MOL      0.035427
    101 H46         0.7860   -1.0520    5.9260 hc        1 MOL      0.035427
    102 N10         1.8770   -2.0610    0.1220 n         1 MOL     -0.058190
    103 C32         2.6870   -1.9430   -1.0500 c3        1 MOL      0.069857
    104 C33         4.1310   -1.4790   -0.6850 c         1 MOL      0.541865
    105 O16         4.4480   -1.0830    0.4580 o         1 MOL     -0.482120
    106 C34         1.9220   -1.0550   -2.0780 c3        1 MOL     -0.099567
    107 C35         0.5370   -1.6220   -2.4570 c         1 MOL      0.730396
    108 O17        -0.4570   -1.1960   -1.8620 o         1 MOL     -0.699381
    109 O18         0.4760   -2.4530   -3.3730 o         1 MOL     -0.699381
    110 H47         1.4670   -1.2060    0.4750 hn        1 MOL      0.028426
    111 H48         2.7490   -2.9540   -1.4430 h1        1 MOL      0.022316
    112 H49         2.6670   -0.9670   -2.8700 hc        1 MOL      0.010519
    113 H50         1.6000   -0.1130   -1.6450 hc        1 MOL      0.010519
    114 N11         5.0120   -1.6700   -1.6810 n         1 MOL     -0.694504
    115 C36         6.4340   -1.4620   -1.3900 c3        1 MOL      0.452445
    116 C37         6.8530   -0.0030   -1.2360 c         1 MOL      0.302187
    117 O19         7.5850    0.2360   -0.2440 o         1 MOL     -0.466530
    118 C38         7.3230   -2.1570   -2.4020 c3        1 MOL     -0.268930
    119 C39         8.7980   -1.8860   -2.1650 ca        1 MOL     -0.007519
    120 C40         9.4580   -2.5720   -1.0740 ca        1 MOL     -0.093595
    121 C41         9.6020   -0.8820   -2.8870 ca        1 MOL     -0.093595
    122 C42        10.7940   -2.2880   -0.7430 ca        1 MOL     -0.203866
    123 C43        10.9980   -0.6300   -2.5390 ca        1 MOL     -0.203866
    124 C44        11.5020   -1.2890   -1.4240 ca        1 MOL     -0.002683
    125 H51         4.7210   -2.0500   -2.5730 hn        1 MOL      0.353093
    126 H52         6.6980   -1.8640   -0.4140 h1        1 MOL      0.042611
    127 H53         7.1370   -1.9110   -3.4470 hc        1 MOL      0.090184
    128 H54         7.1190   -3.2290   -2.2750 hc        1 MOL      0.090184
    129 H55         8.9110   -3.3950   -0.6250 ha        1 MOL      0.107224
    130 H56         9.1490   -0.3510   -3.7150 ha        1 MOL      0.107224
    131 H57        11.2610   -2.7330    0.1140 ha        1 MOL      0.135275
    132 H58        11.6510    0.0740   -3.0230 ha        1 MOL      0.135275
    133 H59        12.4930   -1.0820   -1.0510 ha        1 MOL      0.075930
    134 N12         6.2140    0.9840   -1.8990 n         1 MOL     -0.172631
    135 C45         6.2940    2.4030   -1.4940 c3        1 MOL      0.077756
    136 C46         5.6080    2.6600   -0.1450 c         1 MOL      0.177775
    137 O20         6.0270    3.5460    0.6010 o         1 MOL     -0.494852
    138 C47         5.6310    3.2600   -2.5840 c3        1 MOL      0.028399
    139 C48         5.3370    2.2810   -3.6960 c3        1 MOL     -0.087938
    140 C49         5.2780    0.8890   -3.0030 c3        1 MOL      0.046137
    141 H60         7.3480    2.6570   -1.4220 h1        1 MOL      0.073142
    142 H61         4.7290    3.7770   -2.2780 hc        1 MOL      0.033962
    143 H62         6.3370    4.0700   -2.7770 hc        1 MOL      0.033962
    144 H63         4.4870    2.5780   -4.2960 hc        1 MOL      0.034295
    145 H64         6.2720    2.2570   -4.2720 hc        1 MOL      0.034295
    146 H65         4.3060    0.6830   -2.5520 h1        1 MOL      0.027120
    147 H66         5.5860    0.0710   -3.6540 h1        1 MOL      0.027120
    148 N13         4.6920    1.8520    0.3150 n         1 MOL     -0.064797
    149 C50         4.0880    2.1040    1.6440 c3        1 MOL     -0.063761
    150 C51         4.9200    1.4630    2.7440 c         1 MOL      0.429651
    151 O21         4.9880    1.9440    3.8920 o         1 MOL     -0.571509
    152 C52         2.7070    1.4380    1.6320 c3        1 MOL      0.188668
    153 C53         1.8040    2.1160    0.6270 c3        1 MOL     -0.255080
    154 C54         0.3950    1.4680    0.7330 c         1 MOL      0.821046
    155 O22         0.2310    0.3160    1.0880 o         1 MOL     -0.801423
    156 O23        -0.5880    2.0350    0.1610 o         1 MOL     -0.801423
    157 H67         4.4700    1.0270   -0.2350 hn        1 MOL      0.151261
    158 H68         3.8880    3.1330    1.9510 h1        1 MOL      0.119448
    159 H69         2.2290    1.6340    2.5950 hc        1 MOL     -0.036767
    160 H70         2.7380    0.3610    1.4440 hc        1 MOL     -0.036767
    161 H71         2.1470    2.0540   -0.4040 hc        1 MOL      0.087521
    162 H72         1.6420    3.1650    0.8700 hc        1 MOL      0.087521
    163 N14         5.6840    0.4260    2.3970 n         1 MOL     -0.037097
    164 C55         6.6310   -0.1580    3.3260 c3        1 MOL     -0.156276
    165 H73         7.6100   -0.2280    2.8520 h1        1 MOL      0.059423
    166 H74         6.7020    0.4680    4.2160 h1        1 MOL      0.059423
    167 H75         6.2930   -1.1550    3.6110 h1        1 MOL      0.059423
    168 H76         5.5960   -0.0050    1.4830 hn        1 MOL      0.100445
    169 Ca1        -2.1110    0.0090   -0.3240 Ca        1 MOL      1.707433
    170 O24        -1.9580   -0.3710    2.7770 oh        1 MOL     -0.855457
    171 H77        -2.0820    0.2810    3.4700 ho        1 MOL      0.424115
    172 H78        -1.0170   -0.5140    2.7420 ho        1 MOL      0.424115
    173 O25        -4.1500   -1.0080    1.4200 oh        1 MOL     -0.855457
    174 H79        -3.5320   -0.7380    2.1030 ho        1 MOL      0.424115
    175 H80        -4.9580   -0.5460    1.6390 ho        1 MOL      0.424115
@<TRIPOS>BOND
     1    1    2 1   
     2    1    4 1   
     3    1    5 1   
     4    1    6 1   
     5    2    3 2   
     6    2    7 1   
     7    7    8 1   
     8    7   15 1   
     9    8    9 1   
    10    8   11 1   
    11    8   16 1   
    12    9   10 2   
    13    9   19 1   
    14   11   12 1   
    15   11   17 1   
    16   11   18 1   
    17   12   13 1   
    18   12   14 1   
    19   19   20 1   
    20   19   24 1   
    21   20   21 1   
    22   20   23 1   
    23   20   25 1   
    24   21   22 2   
    25   21   29 1   
    26   23   26 1   
    27   23   27 1   
    28   23   28 1   
    29   29   30 1   
    30   29   37 1   
    31   30   31 1   
    32   30   33 1   
    33   30   38 1   
    34   31   32 2   
    35   31   41 1   
    36   33   34 1   
    37   33   39 1   
    38   33   40 1   
    39   34   35 1   
    40   34   36 1   
    41   41   42 1   
    42   41   45 1   
    43   42   43 1   
    44   42   46 1   
    45   42   47 1   
    46   43   44 2   
    47   43   48 1   
    48   48   49 1   
    49   48   56 1   
    50   49   50 1   
    51   49   52 1   
    52   49   57 1   
    53   50   51 2   
    54   50   62 1   
    55   52   53 1   
    56   52   58 1   
    57   52   59 1   
    58   53   54 1   
    59   53   55 2   
    60   54   60 1   
    61   54   61 1   
    62   62   63 1   
    63   62   66 1   
    64   63   64 1   
    65   63   67 1   
    66   63   68 1   
    67   64   65 2   
    68   64   69 1   
    69   69   70 1   
    70   69   76 1   
    71   70   71 1   
    72   70   73 1   
    73   70   77 1   
    74   71   72 2   
    75   71   83 1   
    76   73   74 1   
    77   73   75 1   
    78   73   78 1   
    79   74   80 1   
    80   74   81 1   
    81   74   82 1   
    82   75   79 1   
    83   83   84 1   
    84   83   91 1   
    85   84   85 1   
    86   84   87 1   
    87   84   92 1   
    88   85   86 2   
    89   85  102 1   
    90   87   88 1   
    91   87   89 1   
    92   87   93 1   
    93   88   90 1   
    94   88   94 1   
    95   88   95 1   
    96   89   96 1   
    97   89   97 1   
    98   89   98 1   
    99   90   99 1   
   100   90  100 1   
   101   90  101 1   
   102  102  103 1   
   103  102  110 1   
   104  103  104 1   
   105  103  106 1   
   106  103  111 1   
   107  104  105 2   
   108  104  114 1   
   109  106  107 1   
   110  106  112 1   
   111  106  113 1   
   112  107  108 1   
   113  107  109 1   
   114  114  115 1   
   115  114  125 1   
   116  115  116 1   
   117  115  118 1   
   118  115  126 1   
   119  116  117 2   
   120  116  134 1   
   121  118  119 1   
   122  118  127 1   
   123  118  128 1   
   124  119  120 ar  
   125  119  121 ar  
   126  120  122 ar  
   127  120  129 1   
   128  121  123 ar  
   129  121  130 1   
   130  122  124 ar  
   131  122  131 1   
   132  123  124 ar  
   133  123  132 1   
   134  124  133 1   
   135  134  135 1   
   136  134  140 1   
   137  135  136 1   
   138  135  138 1   
   139  135  141 1   
   140  136  137 2   
   141  136  148 1   
   142  138  139 1   
   143  138  142 1   
   144  138  143 1   
   145  139  140 1   
   146  139  144 1   
   147  139  145 1   
   148  140  146 1   
   149  140  147 1   
   150  148  149 1   
   151  148  157 1   
   152  149  150 1   
   153  149  152 1   
   154  149  158 1   
   155  150  151 2   
   156  150  163 1   
   157  152  153 1   
   158  152  159 1   
   159  152  160 1   
   160  153  154 1   
   161  153  161 1   
   162  153  162 1   
   163  154  155 1   
   164  154  156 1   
   165  163  164 1   
   166  163  168 1   
   167  164  165 1   
   168  164  166 1   
   169  164  167 1   
   170  170  171 1   
   171  170  172 1   
   172  173  174 1   
   173  173  175 1   
@<TRIPOS>SUBSTRUCTURE
     1 MOL         1 TEMP              0 ****  ****    0 ROOT
