@<TRIPOS>MOLECULE
MOL
  172   171     1     0     0
SMALL
resp


@<TRIPOS>ATOM
      1 C1         -0.0930   -2.9930    5.7680 c3        1 MOL     -0.427129
      2 C2          0.3850   -2.9720    4.4030 c         1 MOL      0.791387
      3 O1         -0.2680   -3.4500    3.5020 o         1 MOL     -0.606449
      4 H1          0.3580   -2.1700    6.3220 hc        1 MOL      0.102020
      5 H2         -1.1780   -2.8840    5.7750 hc        1 MOL      0.102020
      6 H3          0.1810   -3.9390    6.2350 hc        1 MOL      0.102020
      7 N1          1.4890   -2.2750    4.0880 n         1 MOL     -0.628257
      8 C3          1.9940   -2.1360    2.7090 c3        1 MOL      0.301540
      9 C4          2.3150   -3.5450    2.0890 c         1 MOL      0.379327
     10 O2          3.1850   -4.2720    2.5880 o         1 MOL     -0.609263
     11 C5          3.1960   -1.1600    2.8100 c3        1 MOL     -0.380772
     12 C6          3.8700   -0.8660    1.4910 c         1 MOL      0.639584
     13 O3          4.8760   -0.1330    1.4860 o         1 MOL     -0.643763
     14 O4          3.4070   -1.2990    0.4280 o         1 MOL     -0.643763
     15 H4          1.9780   -1.7930    4.8260 hn        1 MOL      0.291045
     16 H5          1.2500   -1.5810    2.1380 h1        1 MOL      0.014606
     17 H6          3.9600   -1.5920    3.4520 hc        1 MOL      0.106572
     18 H7          2.8370   -0.2470    3.2750 hc        1 MOL      0.106572
     19 N2          1.7080   -3.9500    1.0220 n         1 MOL     -0.118541
     20 C7          1.9600   -5.1530    0.2510 c3        1 MOL      0.014766
     21 C8          3.1150   -4.9360   -0.7930 c         1 MOL      0.637389
     22 O5          3.5130   -5.9280   -1.3960 o         1 MOL     -0.595827
     23 C9          0.6390   -5.5100   -0.4050 c3        1 MOL     -0.290966
     24 H8          0.9510   -3.3750    0.6810 hn        1 MOL      0.224278
     25 H9          2.3450   -5.8660    0.9780 h1        1 MOL      0.061843
     26 H10         0.6110   -6.5370   -0.7820 hc        1 MOL      0.082492
     27 H11        -0.1460   -5.5390    0.3480 hc        1 MOL      0.082492
     28 H12         0.3850   -4.7750   -1.1780 hc        1 MOL      0.082492
     29 N3          3.7660   -3.7690   -0.8830 n         1 MOL     -0.503759
     30 C10         4.8950   -3.7030   -1.8110 c3        1 MOL      0.130691
     31 C11         6.2600   -3.4760   -1.1230 c         1 MOL      0.333036
     32 O6          7.3200   -3.8800   -1.5820 o         1 MOL     -0.500322
     33 C12         4.6560   -2.3810   -2.6460 c3        1 MOL     -0.151620
     34 C13         3.3440   -2.3460   -3.2830 c         1 MOL      0.744349
     35 O7          3.0840   -3.0260   -4.3030 o         1 MOL     -0.733748
     36 O8          2.5510   -1.4980   -2.9010 o         1 MOL     -0.733748
     37 H13         3.4390   -2.9180   -0.4530 hn        1 MOL      0.221409
     38 H14         5.0140   -4.5440   -2.4900 h1        1 MOL      0.074070
     39 H15         5.5140   -2.1660   -3.2820 hc        1 MOL      0.046888
     40 H16         4.6730   -1.5880   -1.8930 hc        1 MOL      0.046888
     41 N4          6.3300   -2.6430   -0.0010 n         1 MOL     -0.138438
     42 C14         7.4950   -2.1640    0.6630 c3        1 MOL     -0.101255
     43 C15         7.9980   -0.9120   -0.0150 c         1 MOL      0.597540
     44 O9          9.1600   -0.8310   -0.4050 o         1 MOL     -0.604641
     45 H17         5.4600   -2.3580    0.4210 hn        1 MOL      0.203418
     46 H18         8.2710   -2.9100    0.7340 h1        1 MOL      0.044444
     47 H19         7.1710   -1.9840    1.6880 h1        1 MOL      0.044444
     48 N5          7.1390    0.0010   -0.2020 n         1 MOL     -0.496624
     49 C16         7.3280    1.2820   -1.0020 c3        1 MOL      0.112778
     50 C17         6.8700    2.5250   -0.2670 c         1 MOL      0.367231
     51 O10         7.1620    3.5930   -0.7220 o         1 MOL     -0.532459
     52 C18         6.7430    1.1460   -2.4990 c3        1 MOL     -0.210128
     53 C19         5.2510    1.2980   -2.5730 c         1 MOL      0.621623
     54 N6          4.7450    2.0530   -3.4820 n         1 MOL     -0.753702
     55 O11         4.5120    0.8170   -1.7210 o         1 MOL     -0.626269
     56 H20         6.2420   -0.1990    0.2280 hn        1 MOL      0.352967
     57 H21         8.4170    1.3740   -1.0820 h1        1 MOL      0.085909
     58 H22         6.9640    0.1450   -2.8780 hc        1 MOL      0.082167
     59 H23         7.2120    1.8070   -3.2250 hc        1 MOL      0.082167
     60 H24         5.4080    2.3660   -4.1900 hn        1 MOL      0.352221
     61 H25         3.7780    2.3250   -3.5620 hn        1 MOL      0.352221
     62 N7          6.3830    2.3930    0.9580 n         1 MOL     -0.005789
     63 C20         6.1530    3.4060    2.0230 c3        1 MOL     -0.420747
     64 C21         4.9010    4.2890    1.7670 c         1 MOL      0.635287
     65 O12         4.7570    5.3720    2.3190 o         1 MOL     -0.582484
     66 H26         6.3710    1.4180    1.2300 hn        1 MOL      0.109832
     67 H27         6.9590    4.1310    1.9410 h1        1 MOL      0.166320
     68 H28         6.0110    2.9860    3.0140 h1        1 MOL      0.166320
     69 N8          4.0330    3.8850    0.8560 n         1 MOL     -0.412574
     70 C22         2.7490    4.5530    0.5020 c3        1 MOL      0.111437
     71 C23         1.6150    3.5720    0.5660 c         1 MOL      0.519222
     72 O13         1.8710    2.3950    0.3160 o         1 MOL     -0.496981
     73 C24         2.7980    5.2100   -0.8950 c3        1 MOL      0.331916
     74 C25         1.5620    6.1360   -1.2180 c3        1 MOL     -0.439981
     75 O14         3.9770    6.0460   -1.0080 oh        1 MOL     -0.568168
     76 H29         4.0680    2.9130    0.5880 hn        1 MOL      0.233707
     77 H30         2.5940    5.3620    1.2180 h1        1 MOL      0.063554
     78 H31         2.7720    4.3990   -1.6210 h1        1 MOL      0.013663
     79 H32         3.9680    6.4330   -1.8810 ho        1 MOL      0.359871
     80 H33         1.5270    6.9270   -0.4620 hc        1 MOL      0.110352
     81 H34         1.7000    6.6460   -2.1670 hc        1 MOL      0.110352
     82 H35         0.6660    5.5060   -1.2430 hc        1 MOL      0.110352
     83 N9          0.4280    4.0220    0.9800 n         1 MOL     -0.644371
     84 C26        -0.7410    3.1710    1.1160 c3        1 MOL     -0.025353
     85 C27        -1.5660    3.1050   -0.2140 c         1 MOL      0.595383
     86 O15        -1.9080    4.2060   -0.6550 o         1 MOL     -0.631401
     87 C28        -1.6410    3.5950    2.3140 c3        1 MOL      0.290083
     88 C29        -0.8240    3.8930    3.6110 c3        1 MOL      0.326040
     89 C30        -2.7160    2.5560    2.6630 c3        1 MOL     -0.311319
     90 C31        -1.6330    4.4880    4.7140 c3        1 MOL     -0.450969
     91 H36         0.3030    4.9900    1.2290 hn        1 MOL      0.328860
     92 H37        -0.4050    2.1710    1.3750 h1        1 MOL      0.060775
     93 H38        -2.2200    4.5120    2.1860 hc        1 MOL     -0.065048
     94 H39        -0.0600    4.6450    3.3940 hc        1 MOL     -0.064899
     95 H40        -0.3280    2.9720    3.9280 hc        1 MOL     -0.064899
     96 H41        -3.4260    3.0000    3.3460 hc        1 MOL      0.040017
     97 H42        -3.2240    2.2830    1.7300 hc        1 MOL      0.040017
     98 H43        -2.2900    1.6670    3.1270 hc        1 MOL      0.040017
     99 H44        -1.0120    5.0270    5.4280 hc        1 MOL      0.097950
    100 H45        -2.3510    5.1600    4.2350 hc        1 MOL      0.097950
    101 H46        -2.1460    3.6190    5.1100 hc        1 MOL      0.097950
    102 N10        -1.9730    1.9700   -0.6970 n         1 MOL     -0.049196
    103 C32        -3.0230    1.6580   -1.6720 c3        1 MOL     -0.171740
    104 C33        -4.3590    1.2790   -1.0410 c         1 MOL      0.560618
    105 O16        -4.4560    0.9050    0.1400 o         1 MOL     -0.328636
    106 C34        -2.6130    0.4880   -2.5720 c3        1 MOL     -0.144008
    107 C35        -1.1850    0.5490   -3.1150 c         1 MOL      0.754788
    108 O17        -0.8260    1.1770   -4.1030 o         1 MOL     -0.718878
    109 O18        -0.2990   -0.0830   -2.4640 o         1 MOL     -0.718878
    110 H47        -1.6860    1.1260   -0.2120 hn        1 MOL      0.118285
    111 H48        -3.2040    2.5140   -2.3330 h1        1 MOL      0.080021
    112 H49        -3.3240    0.1880   -3.3440 hc        1 MOL      0.067880
    113 H50        -2.6090   -0.4210   -1.9720 hc        1 MOL      0.067880
    114 N11        -5.4450    1.4250   -1.8120 n         1 MOL     -0.744622
    115 C36        -6.7630    1.0320   -1.2770 c3        1 MOL      0.348634
    116 C37        -6.8900   -0.4230   -0.7030 c         1 MOL      0.285430
    117 O19        -7.3340   -0.5050    0.4040 o         1 MOL     -0.483377
    118 C38        -7.7480    1.3260   -2.3830 c3        1 MOL     -0.311437
    119 C39        -9.1940    1.1040   -2.0070 ca        1 MOL      0.262905
    120 C40        -9.7160    1.9400   -0.9670 ca        1 MOL     -0.278391
    121 C41       -10.0550    0.2390   -2.6590 ca        1 MOL     -0.278391
    122 C42       -11.0720    1.8090   -0.5510 ca        1 MOL     -0.048780
    123 C43       -11.4320    0.1600   -2.3240 ca        1 MOL     -0.048780
    124 C44       -11.9470    0.9840   -1.3040 ca        1 MOL     -0.167402
    125 H51        -5.4190    2.0800   -2.5790 hn        1 MOL      0.392348
    126 H52        -7.1480    1.6400   -0.4570 h1        1 MOL      0.057519
    127 H53        -7.5330    0.7670   -3.2900 hc        1 MOL      0.079915
    128 H54        -7.6210    2.3690   -2.6560 hc        1 MOL      0.079915
    129 H55        -9.0300    2.5260   -0.3640 ha        1 MOL      0.143351
    130 H56        -9.6160   -0.5270   -3.2740 ha        1 MOL      0.143351
    131 H57       -11.3320    2.4490    0.2850 ha        1 MOL      0.104863
    132 H58       -12.1700   -0.4660   -2.8000 ha        1 MOL      0.104863
    133 H59       -13.0130    0.9200   -1.1630 ha        1 MOL      0.110990
    134 N12        -6.1800   -1.4470   -1.1930 n         1 MOL      0.009234
    135 C45        -6.2890   -2.7340   -0.5260 c3        1 MOL      0.060762
    136 C46        -5.6210   -2.8700    0.8690 c         1 MOL      0.275670
    137 O20        -6.0400   -3.6700    1.6810 o         1 MOL     -0.508743
    138 C47        -5.5910   -3.7240   -1.4860 c3        1 MOL     -0.091967
    139 C48        -5.9590   -3.2490   -2.8340 c3        1 MOL      0.015840
    140 C49        -5.8340   -1.7290   -2.6210 c3        1 MOL     -0.013542
    141 H60        -7.3450   -2.9810   -0.4270 h1        1 MOL      0.046809
    142 H61        -4.5210   -3.6660   -1.2780 hc        1 MOL      0.045471
    143 H62        -5.9710   -4.7270   -1.3000 hc        1 MOL      0.045471
    144 H63        -5.2580   -3.5570   -3.6120 hc        1 MOL      0.019529
    145 H64        -6.9780   -3.4880   -3.1260 hc        1 MOL      0.019529
    146 H65        -4.8120   -1.3620   -2.7620 h1        1 MOL      0.019503
    147 H66        -6.5000   -1.3040   -3.3690 h1        1 MOL      0.019503
    148 N13        -4.7090   -1.9500    1.1370 n         1 MOL      0.047237
    149 C50        -3.8850   -1.7320    2.3360 c3        1 MOL     -0.049007
    150 C51        -4.6070   -0.7900    3.2920 c         1 MOL      0.383512
    151 O21        -4.5780   -0.9980    4.5390 o         1 MOL     -0.559415
    152 C52        -2.5110   -1.1770    1.8750 c3        1 MOL     -0.028966
    153 C53        -1.8400   -1.9810    0.8240 c3        1 MOL      0.155449
    154 C54        -0.4990   -1.3840    0.3500 c         1 MOL      0.569908
    155 O22        -0.2420   -0.1520    0.4750 o         1 MOL     -0.698961
    156 O23         0.3480   -2.1030   -0.2460 o         1 MOL     -0.698961
    157 H67        -4.5540   -1.2040    0.4750 hn        1 MOL      0.006831
    158 H68        -3.6960   -2.6750    2.8580 h1        1 MOL      0.095810
    159 H69        -1.8000   -1.0070    2.6790 hc        1 MOL      0.031041
    160 H70        -2.7040   -0.1780    1.4880 hc        1 MOL      0.031041
    161 H71        -2.5750   -1.9580    0.0210 hc        1 MOL     -0.050087
    162 H72        -1.6760   -2.9930    1.1790 hc        1 MOL     -0.050087
    163 N14        -5.3520    0.1780    2.7570 n         1 MOL      0.026958
    164 C55        -6.4430    0.9080    3.4300 c3        1 MOL     -0.280505
    165 H73        -6.0190    1.6340    4.1240 h1        1 MOL      0.097832
    166 H74        -7.0460    1.4270    2.6860 h1        1 MOL      0.097832
    167 H75        -7.0680    0.2030    3.9770 h1        1 MOL      0.097832
    168 H76        -5.3480    0.2930    1.7570 hn        1 MOL      0.042260
    169 Ca1         1.7930    0.0410   -1.0570 Ca        1 MOL      1.706843
    170 O24         1.1910    2.4920   -2.4300 oh        1 MOL     -0.914023
    171 H77         1.6240    3.0540   -3.0810 ho        1 MOL      0.422907
    172 H78         0.4530    2.1070   -2.9000 ho        1 MOL      0.422907
@<TRIPOS>BOND
     1    1    2 1   
     2    1    4 1   
     3    1    5 1   
     4    1    6 1   
     5    2    3 2   
     6    2    7 1   
     7    7    8 1   
     8    7   15 1   
     9    8    9 1   
    10    8   11 1   
    11    8   16 1   
    12    9   10 2   
    13    9   19 1   
    14   11   12 1   
    15   11   17 1   
    16   11   18 1   
    17   12   13 1   
    18   12   14 1   
    19   19   20 1   
    20   19   24 1   
    21   20   21 1   
    22   20   23 1   
    23   20   25 1   
    24   21   22 2   
    25   21   29 1   
    26   23   26 1   
    27   23   27 1   
    28   23   28 1   
    29   29   30 1   
    30   29   37 1   
    31   30   31 1   
    32   30   33 1   
    33   30   38 1   
    34   31   32 2   
    35   31   41 1   
    36   33   34 1   
    37   33   39 1   
    38   33   40 1   
    39   34   35 1   
    40   34   36 1   
    41   41   42 1   
    42   41   45 1   
    43   42   43 1   
    44   42   46 1   
    45   42   47 1   
    46   43   44 2   
    47   43   48 1   
    48   48   49 1   
    49   48   56 1   
    50   49   50 1   
    51   49   52 1   
    52   49   57 1   
    53   50   51 2   
    54   50   62 1   
    55   52   53 1   
    56   52   58 1   
    57   52   59 1   
    58   53   54 1   
    59   53   55 2   
    60   54   60 1   
    61   54   61 1   
    62   62   63 1   
    63   62   66 1   
    64   63   64 1   
    65   63   67 1   
    66   63   68 1   
    67   64   65 2   
    68   64   69 1   
    69   69   70 1   
    70   69   76 1   
    71   70   71 1   
    72   70   73 1   
    73   70   77 1   
    74   71   72 2   
    75   71   83 1   
    76   73   74 1   
    77   73   75 1   
    78   73   78 1   
    79   74   80 1   
    80   74   81 1   
    81   74   82 1   
    82   75   79 1   
    83   83   84 1   
    84   83   91 1   
    85   84   85 1   
    86   84   87 1   
    87   84   92 1   
    88   85   86 2   
    89   85  102 1   
    90   87   88 1   
    91   87   89 1   
    92   87   93 1   
    93   88   90 1   
    94   88   94 1   
    95   88   95 1   
    96   89   96 1   
    97   89   97 1   
    98   89   98 1   
    99   90   99 1   
   100   90  100 1   
   101   90  101 1   
   102  102  103 1   
   103  102  110 1   
   104  103  104 1   
   105  103  106 1   
   106  103  111 1   
   107  104  105 2   
   108  104  114 1   
   109  106  107 1   
   110  106  112 1   
   111  106  113 1   
   112  107  108 1   
   113  107  109 1   
   114  114  115 1   
   115  114  125 1   
   116  115  116 1   
   117  115  118 1   
   118  115  126 1   
   119  116  117 2   
   120  116  134 1   
   121  118  119 1   
   122  118  127 1   
   123  118  128 1   
   124  119  120 ar  
   125  119  121 ar  
   126  120  122 ar  
   127  120  129 1   
   128  121  123 ar  
   129  121  130 1   
   130  122  124 ar  
   131  122  131 1   
   132  123  124 ar  
   133  123  132 1   
   134  124  133 1   
   135  134  135 1   
   136  134  140 1   
   137  135  136 1   
   138  135  138 1   
   139  135  141 1   
   140  136  137 2   
   141  136  148 1   
   142  138  139 1   
   143  138  142 1   
   144  138  143 1   
   145  139  140 1   
   146  139  144 1   
   147  139  145 1   
   148  140  146 1   
   149  140  147 1   
   150  148  149 1   
   151  148  157 1   
   152  149  150 1   
   153  149  152 1   
   154  149  158 1   
   155  150  151 2   
   156  150  163 1   
   157  152  153 1   
   158  152  159 1   
   159  152  160 1   
   160  153  154 1   
   161  153  161 1   
   162  153  162 1   
   163  154  155 1   
   164  154  156 1   
   165  163  164 1   
   166  163  168 1   
   167  164  165 1   
   168  164  166 1   
   169  164  167 1   
   170  170  171 1   
   171  170  172 1   
@<TRIPOS>SUBSTRUCTURE
     1 MOL         1 TEMP              0 ****  ****    0 ROOT
