@<TRIPOS>MOLECULE
MOL
  175   173     1     0     0
SMALL
resp


@<TRIPOS>ATOM
      1 C1          0.6240    4.4030    5.5720 c3        1 MOL     -0.384302
      2 C2          0.1180    4.1790    4.1940 c         1 MOL      0.686840
      3 O1          0.8960    4.0660    3.2320 o         1 MOL     -0.566448
      4 H1         -0.2100    4.6460    6.2300 hc        1 MOL      0.100936
      5 H2          1.1170    3.4990    5.9310 hc        1 MOL      0.100936
      6 H3          1.3350    5.2290    5.5690 hc        1 MOL      0.100936
      7 N1         -1.1790    3.9090    3.9550 n         1 MOL     -0.603547
      8 C3         -1.8460    3.5960    2.6920 c3        1 MOL      0.033370
      9 C4         -1.9640    4.7630    1.6670 c         1 MOL      0.657157
     10 O2         -2.3410    5.8900    1.9660 o         1 MOL     -0.565898
     11 C5         -3.2690    3.0190    2.9700 c3        1 MOL     -0.313013
     12 C6         -4.0240    2.3970    1.7800 c         1 MOL      0.799138
     13 O3         -5.2410    2.1650    1.8410 o         1 MOL     -0.688210
     14 O4         -3.3890    2.0010    0.7550 o         1 MOL     -0.688210
     15 H4         -1.7140    3.8970    4.8130 hn        1 MOL      0.322952
     16 H5         -1.3100    2.7720    2.2200 h1        1 MOL      0.156090
     17 H6         -3.9130    3.8260    3.3170 hc        1 MOL      0.066634
     18 H7         -3.2410    2.2980    3.7860 hc        1 MOL      0.066634
     19 N2         -1.8190    4.3920    0.3590 n         1 MOL     -0.542216
     20 C7         -1.9020    5.3490   -0.7210 c3        1 MOL      0.241631
     21 C8         -2.8500    4.8780   -1.8900 c         1 MOL      0.473757
     22 O5         -2.9120    5.5350   -2.8980 o         1 MOL     -0.557218
     23 C9         -0.5030    5.7290   -1.1500 c3        1 MOL     -0.156616
     24 H8         -1.5370    3.4550    0.1270 hn        1 MOL      0.317384
     25 H9         -2.2820    6.2840   -0.3120 h1        1 MOL      0.009376
     26 H10         0.0780    6.1210   -0.3100 hc        1 MOL      0.036269
     27 H11         0.0610    4.8900   -1.5590 hc        1 MOL      0.036269
     28 H12        -0.5110    6.3950   -2.0110 hc        1 MOL      0.036269
     29 N3         -3.5340    3.7150   -1.8120 n         1 MOL     -0.409959
     30 C10        -4.4070    3.3000   -2.9210 c3        1 MOL      0.236133
     31 C11        -5.8380    2.7400   -2.5120 c         1 MOL      0.313579
     32 O6         -6.6860    2.7670   -3.4110 o         1 MOL     -0.539248
     33 C12        -3.7090    2.2730   -3.8160 c3        1 MOL     -0.200638
     34 C13        -3.1500    1.0530   -3.1320 c         1 MOL      0.784770
     35 O7         -3.7270    0.5540   -2.1530 o         1 MOL     -0.731862
     36 O8         -2.0910    0.5140   -3.5150 o         1 MOL     -0.731862
     37 H13        -3.4430    3.1480   -0.9850 hn        1 MOL      0.159635
     38 H14        -4.7480    4.1660   -3.4860 h1        1 MOL      0.044196
     39 H15        -2.9320    2.7300   -4.4230 hc        1 MOL      0.033591
     40 H16        -4.5440    2.0000   -4.4590 hc        1 MOL      0.033591
     41 N4         -6.1080    2.2090   -1.3400 n         1 MOL     -0.050913
     42 C14        -7.3880    1.6100   -0.9170 c3        1 MOL     -0.496201
     43 C15        -7.5330    0.0900   -1.1750 c         1 MOL      0.644150
     44 O9         -8.5010   -0.5600   -0.8120 o         1 MOL     -0.622409
     45 H17        -5.4590    2.1320   -0.5680 hn        1 MOL      0.120249
     46 H18        -8.1290    2.1370   -1.5150 h1        1 MOL      0.191918
     47 H19        -7.4480    1.6720    0.1650 h1        1 MOL      0.191918
     48 N5         -6.4930   -0.5570   -1.7230 n         1 MOL     -0.432180
     49 C16        -6.4500   -2.0040   -2.0330 c3        1 MOL      0.100661
     50 C17        -6.5310   -2.9580   -0.8680 c         1 MOL      0.507656
     51 O10        -6.7440   -4.1390   -1.1570 o         1 MOL     -0.578704
     52 C18        -5.2500   -2.2270   -3.0040 c3        1 MOL     -0.108747
     53 C19        -3.8360   -2.2380   -2.3940 c         1 MOL      0.662290
     54 N6         -2.8470   -2.4900   -3.2020 n         1 MOL     -0.631463
     55 O11        -3.6050   -2.1380   -1.2170 o         1 MOL     -0.620154
     56 H20        -5.7800    0.0550   -2.0840 hn        1 MOL      0.311455
     57 H21        -7.3340   -2.2160   -2.6270 h1        1 MOL      0.062748
     58 H22        -5.2970   -1.4260   -3.7470 hc        1 MOL      0.014101
     59 H23        -5.4230   -3.1880   -3.4800 hc        1 MOL      0.014101
     60 H24        -2.9330   -2.7910   -4.1680 hn        1 MOL      0.321423
     61 H25        -1.9330   -2.2590   -2.8500 hn        1 MOL      0.321423
     62 N7         -6.3350   -2.5170    0.3640 n         1 MOL     -0.238414
     63 C20        -6.3610   -3.3900    1.5920 c3        1 MOL     -0.287231
     64 C21        -5.0360   -4.0670    1.9640 c         1 MOL      0.466465
     65 O12        -5.1130   -4.9130    2.9070 o         1 MOL     -0.599498
     66 H26        -6.0530   -1.5670    0.5550 hn        1 MOL      0.244901
     67 H27        -7.0940   -4.1840    1.4360 h1        1 MOL      0.142304
     68 H28        -6.7500   -2.7660    2.3970 h1        1 MOL      0.142304
     69 N8         -3.8960   -3.7270    1.4600 n         1 MOL     -0.081650
     70 C22        -2.5900   -4.3020    1.7650 c3        1 MOL     -0.192182
     71 C23        -1.4740   -3.3060    1.7480 c         1 MOL      0.476647
     72 O13        -1.5230   -2.3520    1.0100 o         1 MOL     -0.525633
     73 C24        -2.3300   -5.3630    0.6610 c3        1 MOL      0.620088
     74 C25        -3.3250   -6.4430    0.4710 c3        1 MOL     -0.507331
     75 O14        -2.0980   -4.8500   -0.6220 oh        1 MOL     -0.623670
     76 H29        -3.9280   -3.0400    0.7270 hn        1 MOL      0.175828
     77 H30        -2.5710   -4.7240    2.7720 h1        1 MOL      0.071548
     78 H31        -1.4300   -5.8470    1.0320 h1        1 MOL     -0.101444
     79 H32        -1.4340   -4.1540   -0.5390 ho        1 MOL      0.372502
     80 H33        -2.8720   -7.2570   -0.0970 hc        1 MOL      0.126357
     81 H34        -3.6820   -6.7430    1.4480 hc        1 MOL      0.126357
     82 H35        -4.1930   -5.9840   -0.0100 hc        1 MOL      0.126357
     83 N9         -0.3400   -3.4710    2.5210 n         1 MOL     -0.442048
     84 C26         0.8330   -2.5860    2.4850 c3        1 MOL     -0.022145
     85 C27         1.5590   -3.0090    1.1560 c         1 MOL      0.472991
     86 O15         1.8650   -4.2110    0.9600 o         1 MOL     -0.579137
     87 C28         1.7740   -2.7780    3.6600 c3        1 MOL     -0.055540
     88 C29         1.0240   -2.5350    4.9990 c3        1 MOL      0.126848
     89 C30         2.9340   -1.8830    3.4420 c3        1 MOL     -0.071887
     90 C31         0.5170   -1.1160    5.1810 c3        1 MOL     -0.324221
     91 H36        -0.3100   -4.3050    3.0850 hn        1 MOL      0.287955
     92 H37         0.5020   -1.5440    2.4850 h1        1 MOL      0.145746
     93 H38         2.0740   -3.8340    3.6480 hc        1 MOL      0.035585
     94 H39         1.5910   -2.9090    5.8560 hc        1 MOL     -0.011752
     95 H40         0.1880   -3.2430    5.0210 hc        1 MOL     -0.011752
     96 H41         2.6730   -0.8860    3.0980 hc        1 MOL      0.008797
     97 H42         3.3340   -1.7530    4.4520 hc        1 MOL      0.008797
     98 H43         3.7380   -2.2580    2.8070 hc        1 MOL      0.008797
     99 H44         1.3880   -0.4520    5.2110 hc        1 MOL      0.072899
    100 H45        -0.0140   -0.6900    4.3210 hc        1 MOL      0.072899
    101 H46        -0.0500   -1.0370    6.0970 hc        1 MOL      0.072899
    102 N10         1.8070   -2.0460    0.2790 n         1 MOL     -0.153247
    103 C32         2.5600   -2.1060   -0.9830 c3        1 MOL     -0.010254
    104 C33         3.9400   -1.4190   -0.8110 c         1 MOL      0.241885
    105 O16         4.0960   -0.5300    0.0010 o         1 MOL     -0.197956
    106 C34         1.7470   -1.4800   -2.1960 c3        1 MOL     -0.366567
    107 C35         0.3810   -2.0780   -2.3960 c         1 MOL      0.755819
    108 O17         0.1770   -2.7800   -3.4430 o         1 MOL     -0.676067
    109 O18        -0.5210   -1.8120   -1.5550 o         1 MOL     -0.676067
    110 H47         1.5360   -1.1110    0.5510 hn        1 MOL      0.287196
    111 H48         2.7830   -3.1650   -1.1080 h1        1 MOL      0.086084
    112 H49         2.3610   -1.4980   -3.0950 hc        1 MOL      0.114631
    113 H50         1.6430   -0.3910   -2.1270 hc        1 MOL      0.114631
    114 N11         4.9390   -1.9310   -1.4640 n         1 MOL     -0.528137
    115 C36         6.3600   -1.5650   -1.2560 c3        1 MOL      0.416097
    116 C37         6.6480   -0.0790   -1.2720 c         1 MOL      0.245594
    117 O19         7.4240    0.3320   -0.4230 o         1 MOL     -0.469860
    118 C38         7.3220   -2.3770   -2.1800 c3        1 MOL     -0.371046
    119 C39         8.8260   -2.1880   -1.7830 ca        1 MOL      0.138794
    120 C40         9.7730   -1.7580   -2.7400 ca        1 MOL     -0.143298
    121 C41         9.1780   -2.4670   -0.4850 ca        1 MOL     -0.143298
    122 C42        11.0550   -1.4990   -2.3300 ca        1 MOL     -0.118598
    123 C43        10.5370   -2.4090   -0.1460 ca        1 MOL     -0.118598
    124 C44        11.4820   -1.8230   -1.0300 ca        1 MOL     -0.139712
    125 H51         4.8490   -2.6700   -2.1570 hn        1 MOL      0.316240
    126 H52         6.4670   -1.9680   -0.2500 h1        1 MOL      0.065832
    127 H53         7.3030   -2.0240   -3.2030 hc        1 MOL      0.099753
    128 H54         7.0340   -3.4270   -2.1910 hc        1 MOL      0.099753
    129 H55         9.5580   -1.5910   -3.7800 ha        1 MOL      0.112175
    130 H56         8.4860   -2.8050    0.2710 ha        1 MOL      0.112175
    131 H57        11.8130   -1.0570   -2.9550 ha        1 MOL      0.110450
    132 H58        10.7280   -2.7150    0.8810 ha        1 MOL      0.110450
    133 H59        12.4940   -1.5350   -0.7850 ha        1 MOL      0.116583
    134 N12         5.9990    0.7620   -2.1220 n         1 MOL     -0.058304
    135 C45         6.1080    2.2640   -2.0220 c3        1 MOL      0.074274
    136 C46         5.5620    2.7630   -0.6630 c         1 MOL      0.168615
    137 O20         6.0010    3.8280   -0.1990 o         1 MOL     -0.508002
    138 C47         5.3500    2.8010   -3.2470 c3        1 MOL      0.033803
    139 C48         5.3870    1.6790   -4.2910 c3        1 MOL     -0.142202
    140 C49         5.3810    0.4430   -3.3640 c3        1 MOL     -0.039318
    141 H60         7.1600    2.5520   -2.0970 h1        1 MOL      0.068146
    142 H61         4.3360    3.0960   -2.9880 hc        1 MOL      0.020909
    143 H62         5.9240    3.6580   -3.5990 hc        1 MOL      0.020909
    144 H63         4.4980    1.6110   -4.9160 hc        1 MOL      0.060981
    145 H64         6.3290    1.8710   -4.8120 hc        1 MOL      0.060981
    146 H65         4.3440    0.2840   -3.0730 h1        1 MOL      0.036240
    147 H66         5.8090   -0.4560   -3.8300 h1        1 MOL      0.036240
    148 N13         4.6600    2.0880    0.0000 n         1 MOL      0.155834
    149 C50         4.1450    2.4770    1.2840 c3        1 MOL     -0.366596
    150 C51         4.9890    1.9630    2.4000 c         1 MOL      0.626132
    151 O21         5.2190    2.6880    3.3630 o         1 MOL     -0.565651
    152 C52         2.7210    1.8390    1.3570 c3        1 MOL      0.043978
    153 C53         1.7230    2.2850    0.3480 c3        1 MOL      0.058584
    154 C54         0.4910    1.4120    0.2900 c         1 MOL      0.387078
    155 O22        -0.4620    1.6990   -0.4650 o         1 MOL     -0.672077
    156 O23         0.2780    0.4340    1.0920 o         1 MOL     -0.672077
    157 H67         4.2720    1.2440   -0.3970 hn        1 MOL      0.060381
    158 H68         3.9660    3.5500    1.3150 h1        1 MOL      0.169747
    159 H69         2.2480    1.9780    2.3260 hc        1 MOL      0.019636
    160 H70         2.8160    0.7610    1.1830 hc        1 MOL      0.019636
    161 H71         2.1690    2.3520   -0.6470 hc        1 MOL      0.027566
    162 H72         1.5350    3.3280    0.6210 hc        1 MOL      0.027566
    163 N14         5.5450    0.6970    2.3350 n         1 MOL     -0.253711
    164 C55         6.4840    0.1050    3.3230 c3        1 MOL     -0.140384
    165 H73         7.2690   -0.4370    2.7960 h1        1 MOL      0.070097
    166 H74         6.9300    0.8990    3.9220 h1        1 MOL      0.070097
    167 H75         5.9420   -0.5810    3.9740 h1        1 MOL      0.070097
    168 H76         5.2010    0.1030    1.6000 hn        1 MOL      0.123421
    169 Ca1        -2.1440   -0.1520   -0.2330 Ca        1 MOL      1.708617
    170 O24        -4.2910   -0.6960    1.3430 oh        1 MOL     -0.842189
    171 H77        -4.3550   -0.9760    2.2530 ho        1 MOL      0.407302
    172 H78        -4.6310    0.1950    1.3430 ho        1 MOL      0.407302
    173 O25        -1.6860    0.2530    2.6110 oh        1 MOL     -0.842189
    174 H79        -1.4670    0.5860    3.4820 ho        1 MOL      0.407302
    175 H80        -0.8450    0.1830    2.1590 ho        1 MOL      0.407302
@<TRIPOS>BOND
     1    1    2 1   
     2    1    4 1   
     3    1    5 1   
     4    1    6 1   
     5    2    3 2   
     6    2    7 1   
     7    7    8 1   
     8    7   15 1   
     9    8    9 1   
    10    8   11 1   
    11    8   16 1   
    12    9   10 2   
    13    9   19 1   
    14   11   12 1   
    15   11   17 1   
    16   11   18 1   
    17   12   13 1   
    18   12   14 1   
    19   19   20 1   
    20   19   24 1   
    21   20   21 1   
    22   20   23 1   
    23   20   25 1   
    24   21   22 2   
    25   21   29 1   
    26   23   26 1   
    27   23   27 1   
    28   23   28 1   
    29   29   30 1   
    30   29   37 1   
    31   30   31 1   
    32   30   33 1   
    33   30   38 1   
    34   31   32 2   
    35   31   41 1   
    36   33   34 1   
    37   33   39 1   
    38   33   40 1   
    39   34   35 1   
    40   34   36 1   
    41   41   42 1   
    42   41   45 1   
    43   42   43 1   
    44   42   46 1   
    45   42   47 1   
    46   43   44 2   
    47   43   48 1   
    48   48   49 1   
    49   48   56 1   
    50   49   50 1   
    51   49   52 1   
    52   49   57 1   
    53   50   51 2   
    54   50   62 1   
    55   52   53 1   
    56   52   58 1   
    57   52   59 1   
    58   53   54 1   
    59   53   55 2   
    60   54   60 1   
    61   54   61 1   
    62   62   63 1   
    63   62   66 1   
    64   63   64 1   
    65   63   67 1   
    66   63   68 1   
    67   64   65 2   
    68   64   69 1   
    69   69   70 1   
    70   69   76 1   
    71   70   71 1   
    72   70   73 1   
    73   70   77 1   
    74   71   72 2   
    75   71   83 1   
    76   73   74 1   
    77   73   75 1   
    78   73   78 1   
    79   74   80 1   
    80   74   81 1   
    81   74   82 1   
    82   75   79 1   
    83   83   84 1   
    84   83   91 1   
    85   84   85 1   
    86   84   87 1   
    87   84   92 1   
    88   85   86 2   
    89   85  102 1   
    90   87   88 1   
    91   87   89 1   
    92   87   93 1   
    93   88   90 1   
    94   88   94 1   
    95   88   95 1   
    96   89   96 1   
    97   89   97 1   
    98   89   98 1   
    99   90   99 1   
   100   90  100 1   
   101   90  101 1   
   102  102  103 1   
   103  102  110 1   
   104  103  104 1   
   105  103  106 1   
   106  103  111 1   
   107  104  105 2   
   108  104  114 1   
   109  106  107 1   
   110  106  112 1   
   111  106  113 1   
   112  107  108 1   
   113  107  109 1   
   114  114  115 1   
   115  114  125 1   
   116  115  116 1   
   117  115  118 1   
   118  115  126 1   
   119  116  117 2   
   120  116  134 1   
   121  118  119 1   
   122  118  127 1   
   123  118  128 1   
   124  119  120 ar  
   125  119  121 ar  
   126  120  122 ar  
   127  120  129 1   
   128  121  123 ar  
   129  121  130 1   
   130  122  124 ar  
   131  122  131 1   
   132  123  124 ar  
   133  123  132 1   
   134  124  133 1   
   135  134  135 1   
   136  134  140 1   
   137  135  136 1   
   138  135  138 1   
   139  135  141 1   
   140  136  137 2   
   141  136  148 1   
   142  138  139 1   
   143  138  142 1   
   144  138  143 1   
   145  139  140 1   
   146  139  144 1   
   147  139  145 1   
   148  140  146 1   
   149  140  147 1   
   150  148  149 1   
   151  148  157 1   
   152  149  150 1   
   153  149  152 1   
   154  149  158 1   
   155  150  151 2   
   156  150  163 1   
   157  152  153 1   
   158  152  159 1   
   159  152  160 1   
   160  153  154 1   
   161  153  161 1   
   162  153  162 1   
   163  154  155 1   
   164  154  156 1   
   165  163  164 1   
   166  163  168 1   
   167  164  165 1   
   168  164  166 1   
   169  164  167 1   
   170  170  171 1   
   171  170  172 1   
   172  173  174 1   
   173  173  175 1   
@<TRIPOS>SUBSTRUCTURE
     1 MOL         1 TEMP              0 ****  ****    0 ROOT
