@<TRIPOS>MOLECULE
MOL
  175   173     1     0     0
SMALL
resp


@<TRIPOS>ATOM
      1 C1          0.6980    4.4220    5.1540 c3        1 MOL     -0.532084
      2 C2          0.1840    4.1780    3.7310 c         1 MOL      0.701964
      3 O1          0.9230    4.0460    2.7720 o         1 MOL     -0.539571
      4 H1         -0.1450    4.6140    5.8170 hc        1 MOL      0.134298
      5 H2          1.2400    3.5420    5.5010 hc        1 MOL      0.134298
      6 H3          1.3650    5.2840    5.1570 hc        1 MOL      0.134298
      7 N1         -1.1380    4.3040    3.5360 n         1 MOL     -0.566736
      8 C3         -1.8490    3.8360    2.3260 c3        1 MOL      0.223544
      9 C4         -2.1590    4.9930    1.3520 c         1 MOL      0.607863
     10 O2         -2.1990    6.1490    1.8300 o         1 MOL     -0.590973
     11 C5         -3.1320    3.1230    2.8450 c3        1 MOL     -0.305062
     12 C6         -3.8850    2.3180    1.7430 c         1 MOL      0.707840
     13 O3         -5.1290    2.1580    1.8720 o         1 MOL     -0.663773
     14 O4         -3.2170    1.9790    0.7550 o         1 MOL     -0.663773
     15 H4         -1.6920    4.5050    4.3530 hn        1 MOL      0.300408
     16 H5         -1.2710    3.1240    1.7340 h1        1 MOL     -0.004257
     17 H6         -3.7750    3.9350    3.1750 hc        1 MOL      0.052738
     18 H7         -2.8760    2.4340    3.6540 hc        1 MOL      0.052738
     19 N2         -2.4210    4.7480    0.0640 n         1 MOL     -0.597548
     20 C7         -2.8330    5.7340   -0.9630 c3        1 MOL      0.305152
     21 C8         -3.8280    5.0790   -1.9510 c         1 MOL      0.535482
     22 O5         -4.0510    5.6850   -2.9930 o         1 MOL     -0.576528
     23 C9         -1.5010    6.1890   -1.5860 c3        1 MOL     -0.179590
     24 H8         -2.0890    3.8380   -0.2430 hn        1 MOL      0.350637
     25 H9         -3.3750    6.5900   -0.5490 h1        1 MOL      0.015355
     26 H10        -0.9040    5.3400   -1.9260 hc        1 MOL      0.043466
     27 H11        -1.7410    6.8810   -2.3920 hc        1 MOL      0.043466
     28 H12        -0.9400    6.7690   -0.8640 hc        1 MOL      0.043466
     29 N3         -4.3780    3.8740   -1.7140 n         1 MOL     -0.570251
     30 C10        -5.1510    3.1560   -2.7650 c3        1 MOL      0.145821
     31 C11        -6.3060    2.2660   -2.3080 c         1 MOL      0.421211
     32 O6         -7.0580    1.8280   -3.2100 o         1 MOL     -0.556187
     33 C12        -4.1490    2.3780   -3.5250 c3        1 MOL     -0.126328
     34 C13        -3.5040    1.2080   -2.7670 c         1 MOL      0.703530
     35 O7         -4.1140    0.6450   -1.8740 o         1 MOL     -0.728174
     36 O8         -2.2880    0.9890   -2.9300 o         1 MOL     -0.728174
     37 H13        -4.1270    3.2980   -0.9180 hn        1 MOL      0.288636
     38 H14        -5.6840    3.8410   -3.4250 h1        1 MOL      0.079208
     39 H15        -3.3200    3.0200   -3.8220 hc        1 MOL      0.038309
     40 H16        -4.5750    2.1020   -4.4890 hc        1 MOL      0.038309
     41 N4         -6.5170    1.9960   -1.0220 n         1 MOL     -0.311763
     42 C14        -7.5870    1.1640   -0.4440 c3        1 MOL     -0.154066
     43 C15        -7.5880   -0.3390   -0.8670 c         1 MOL      0.476837
     44 O9         -8.5610   -1.0110   -0.6580 o         1 MOL     -0.603803
     45 H17        -5.8030    2.3020   -0.3690 hn        1 MOL      0.210509
     46 H18        -8.5760    1.5480   -0.6730 h1        1 MOL      0.107513
     47 H19        -7.5110    1.2410    0.6400 h1        1 MOL      0.107513
     48 N5         -6.5000   -0.8690   -1.3590 n         1 MOL     -0.183591
     49 C16        -6.3920   -2.2310   -1.8470 c3        1 MOL      0.052786
     50 C17        -6.3410   -3.2410   -0.7640 c         1 MOL      0.453236
     51 O10        -6.7070   -4.3860   -1.0830 o         1 MOL     -0.590638
     52 C18        -5.2700   -2.3940   -2.8100 c3        1 MOL     -0.021372
     53 C19        -3.8680   -2.3830   -2.2850 c         1 MOL      0.538368
     54 N6         -2.8720   -2.3630   -3.1110 n         1 MOL     -0.638774
     55 O11        -3.6550   -2.2790   -1.1310 o         1 MOL     -0.453627
     56 H20        -5.7070   -0.2510   -1.4070 hn        1 MOL      0.212881
     57 H21        -7.3080   -2.4670   -2.3910 h1        1 MOL      0.069649
     58 H22        -5.5040   -1.6860   -3.5980 hc        1 MOL     -0.000682
     59 H23        -5.4210   -3.3530   -3.3110 hc        1 MOL     -0.000682
     60 H24        -3.0740   -2.4540   -4.0960 hn        1 MOL      0.308416
     61 H25        -1.9610   -2.0380   -2.8170 hn        1 MOL      0.308416
     62 N7         -5.9400   -2.8530    0.4240 n         1 MOL     -0.090827
     63 C20        -6.0650   -3.6510    1.6610 c3        1 MOL     -0.225441
     64 C21        -4.7820   -4.3190    2.1780 c         1 MOL      0.531861
     65 O12        -4.8620   -4.9650    3.2430 o         1 MOL     -0.589748
     66 H26        -5.5970   -1.9180    0.5750 hn        1 MOL      0.091563
     67 H27        -6.7940   -4.4360    1.4540 h1        1 MOL      0.100694
     68 H28        -6.4840   -3.0080    2.4360 h1        1 MOL      0.100694
     69 N8         -3.6980   -4.1460    1.4030 n         1 MOL     -0.189269
     70 C22        -2.3760   -4.6280    1.7250 c3        1 MOL     -0.003457
     71 C23        -1.3360   -3.4520    1.6910 c         1 MOL      0.568367
     72 O13        -1.4610   -2.4640    0.9480 o         1 MOL     -0.704671
     73 C24        -2.0330   -5.6140    0.6580 c3        1 MOL      0.419359
     74 C25        -2.9810   -6.9130    0.6710 c3        1 MOL     -0.418011
     75 O14        -2.1210   -5.0460   -0.7080 oh        1 MOL     -0.613202
     76 H29        -3.7000   -3.6130    0.5410 hn        1 MOL      0.139479
     77 H30        -2.3780   -5.0140    2.7420 h1        1 MOL      0.031237
     78 H31        -0.9940   -5.8230    0.9290 h1        1 MOL     -0.060047
     79 H32        -1.5900   -4.2610   -0.8450 ho        1 MOL      0.391600
     80 H33        -2.6420   -7.6060   -0.1070 hc        1 MOL      0.110801
     81 H34        -2.8340   -7.3340    1.6630 hc        1 MOL      0.110801
     82 H35        -4.0160   -6.6310    0.5190 hc        1 MOL      0.110801
     83 N9         -0.1950   -3.6810    2.3480 n         1 MOL     -0.553539
     84 C26         1.0170   -2.7990    2.1420 c3        1 MOL      0.119359
     85 C27         1.7220   -3.0980    0.8270 c         1 MOL      0.703678
     86 O15         2.0420   -4.2450    0.5470 o         1 MOL     -0.637712
     87 C28         1.8040   -2.5630    3.4400 c3        1 MOL     -0.044592
     88 C29         1.1860   -1.3520    4.2630 c3        1 MOL      0.393485
     89 C30         3.2970   -2.2950    3.1470 c3        1 MOL     -0.210652
     90 C31         1.7930   -1.1660    5.6660 c3        1 MOL     -0.233764
     91 H36        -0.1330   -4.5630    2.8180 hn        1 MOL      0.304844
     92 H37         0.6910   -1.7710    1.9810 h1        1 MOL      0.064953
     93 H38         1.6680   -3.4600    4.0390 hc        1 MOL      0.016480
     94 H39         0.1500   -1.6170    4.4830 hc        1 MOL     -0.122660
     95 H40         1.2100   -0.4680    3.6360 hc        1 MOL     -0.122660
     96 H41         3.3800   -1.6040    2.3150 hc        1 MOL      0.027932
     97 H42         3.8180   -1.9800    4.0550 hc        1 MOL      0.027932
     98 H43         3.7320   -3.2210    2.7880 hc        1 MOL      0.027932
     99 H44         1.2380   -0.3510    6.1450 hc        1 MOL      0.045445
    100 H45         1.7940   -2.1030    6.2130 hc        1 MOL      0.045445
    101 H46         2.8270   -0.8270    5.5880 hc        1 MOL      0.045445
    102 N10         1.8700   -2.0630    0.0280 n         1 MOL     -0.193773
    103 C32         2.6250   -2.1110   -1.1900 c3        1 MOL      0.040509
    104 C33         3.9880   -1.5110   -0.9720 c         1 MOL      0.323040
    105 O16         4.0960   -0.5320   -0.1930 o         1 MOL     -0.235358
    106 C34         1.8510   -1.3440   -2.2530 c3        1 MOL     -0.375532
    107 C35         0.4280   -1.8280   -2.6260 c         1 MOL      0.751853
    108 O17        -0.5810   -1.3600   -1.9720 o         1 MOL     -0.660552
    109 O18         0.2200   -2.6270   -3.5630 o         1 MOL     -0.660552
    110 H47         1.6000   -1.1310    0.3060 hn        1 MOL      0.036345
    111 H48         2.7280   -3.1400   -1.5370 h1        1 MOL      0.071827
    112 H49         2.4410   -1.3660   -3.1650 hc        1 MOL      0.105407
    113 H50         1.6830   -0.3020   -1.9780 hc        1 MOL      0.105407
    114 N11         5.0740   -1.9220   -1.6990 n         1 MOL     -0.530383
    115 C36         6.4490   -1.4940   -1.5060 c3        1 MOL      0.302845
    116 C37         6.7470   -0.0120   -1.1390 c         1 MOL      0.257668
    117 O19         7.3600    0.2230   -0.0620 o         1 MOL     -0.487404
    118 C38         7.3650   -1.9590   -2.6020 c3        1 MOL     -0.425197
    119 C39         8.8910   -1.8990   -2.3660 ca        1 MOL      0.342613
    120 C40         9.4960   -2.5530   -1.2480 ca        1 MOL     -0.344857
    121 C41         9.7810   -1.1830   -3.2670 ca        1 MOL     -0.344857
    122 C42        10.8370   -2.3380   -0.8570 ca        1 MOL      0.032628
    123 C43        11.1260   -1.0880   -2.9370 ca        1 MOL      0.032628
    124 C44        11.6600   -1.6090   -1.7100 ca        1 MOL     -0.249946
    125 H51         4.9720   -2.7090   -2.3220 hn        1 MOL      0.332119
    126 H52         6.7540   -2.1160   -0.6710 h1        1 MOL      0.075254
    127 H53         7.0720   -1.6490   -3.6050 hc        1 MOL      0.103913
    128 H54         7.2060   -3.0420   -2.5360 hc        1 MOL      0.103913
    129 H55         8.8750   -3.0890   -0.5510 ha        1 MOL      0.154720
    130 H56         9.3360   -0.7310   -4.1500 ha        1 MOL      0.154720
    131 H57        11.3210   -2.6680    0.0470 ha        1 MOL      0.085036
    132 H58        11.8290   -0.6370   -3.6130 ha        1 MOL      0.085036
    133 H59        12.6660   -1.4240   -1.3820 ha        1 MOL      0.133343
    134 N12         6.2100    0.9920   -1.8420 n         1 MOL     -0.036298
    135 C45         6.3900    2.4150   -1.4400 c3        1 MOL      0.033424
    136 C46         5.8370    2.8290   -0.0630 c         1 MOL      0.272256
    137 O20         6.3400    3.8410    0.4920 o         1 MOL     -0.518372
    138 C47         5.8110    3.2510   -2.5720 c3        1 MOL     -0.115485
    139 C48         5.0080    2.3870   -3.5020 c3        1 MOL     -0.096264
    140 C49         5.4210    0.9440   -3.1230 c3        1 MOL      0.068837
    141 H60         7.4730    2.5970   -1.4170 h1        1 MOL      0.066684
    142 H61         5.3100    4.1630   -2.2600 hc        1 MOL      0.059912
    143 H62         6.7600    3.4370   -3.0840 hc        1 MOL      0.059912
    144 H63         3.9480    2.4260   -3.3030 hc        1 MOL      0.052370
    145 H64         5.3600    2.6420   -4.5060 hc        1 MOL      0.052370
    146 H65         4.5140    0.3610   -2.9330 h1        1 MOL      0.020754
    147 H66         5.9060    0.5130   -3.9880 h1        1 MOL      0.020754
    148 N13         4.8680    2.0420    0.4220 n         1 MOL      0.033308
    149 C50         4.1430    2.1940    1.7230 c3        1 MOL     -0.319022
    150 C51         4.9970    1.5130    2.8160 c         1 MOL      0.471307
    151 O21         4.9440    1.9040    3.9430 o         1 MOL     -0.561488
    152 C52         2.7010    1.6970    1.6220 c3        1 MOL      0.039255
    153 C53         1.9200    2.1760    0.3510 c3        1 MOL     -0.101699
    154 C54         0.5160    1.5360    0.3650 c         1 MOL      0.668364
    155 O22         0.2940    0.4240    0.8660 o         1 MOL     -0.712843
    156 O23        -0.3910    1.9360   -0.4160 o         1 MOL     -0.712843
    157 H67         4.6820    1.1920   -0.0910 hn        1 MOL      0.096542
    158 H68         4.1700    3.2670    1.9000 h1        1 MOL      0.167203
    159 H69         2.1510    1.8430    2.5550 hc        1 MOL      0.066572
    160 H70         2.7950    0.6190    1.5920 hc        1 MOL      0.066572
    161 H71         2.4840    1.8430   -0.5170 hc        1 MOL      0.056407
    162 H72         1.8220    3.2560    0.3180 hc        1 MOL      0.056407
    163 N14         5.8130    0.4820    2.6400 n         1 MOL     -0.014020
    164 C55         6.7100   -0.0710    3.7080 c3        1 MOL     -0.234426
    165 H73         7.6970   -0.2670    3.2880 h1        1 MOL      0.093115
    166 H74         6.7980    0.6510    4.5200 h1        1 MOL      0.093115
    167 H75         6.2880   -1.0000    4.0910 h1        1 MOL      0.093115
    168 H76         5.9340    0.1380    1.6970 hn        1 MOL      0.044682
    169 Ca1        -2.0730   -0.0520   -0.2380 Ca        1 MOL      1.752527
    170 O24        -1.7250   -0.1410    2.4820 oh        1 MOL     -0.767606
    171 H77        -0.7920    0.0340    2.3390 ho        1 MOL      0.389926
    172 H78        -1.8310   -0.1530    3.4260 ho        1 MOL      0.389926
    173 O25        -4.7540   -0.4750    1.3080 oh        1 MOL     -0.767606
    174 H79        -5.2160   -0.6030    2.1330 ho        1 MOL      0.389926
    175 H80        -4.7170    0.4780    1.1920 ho        1 MOL      0.389926
@<TRIPOS>BOND
     1    1    2 1   
     2    1    4 1   
     3    1    5 1   
     4    1    6 1   
     5    2    3 2   
     6    2    7 1   
     7    7    8 1   
     8    7   15 1   
     9    8    9 1   
    10    8   11 1   
    11    8   16 1   
    12    9   10 2   
    13    9   19 1   
    14   11   12 1   
    15   11   17 1   
    16   11   18 1   
    17   12   13 1   
    18   12   14 1   
    19   19   20 1   
    20   19   24 1   
    21   20   21 1   
    22   20   23 1   
    23   20   25 1   
    24   21   22 2   
    25   21   29 1   
    26   23   26 1   
    27   23   27 1   
    28   23   28 1   
    29   29   30 1   
    30   29   37 1   
    31   30   31 1   
    32   30   33 1   
    33   30   38 1   
    34   31   32 2   
    35   31   41 1   
    36   33   34 1   
    37   33   39 1   
    38   33   40 1   
    39   34   35 1   
    40   34   36 1   
    41   41   42 1   
    42   41   45 1   
    43   42   43 1   
    44   42   46 1   
    45   42   47 1   
    46   43   44 2   
    47   43   48 1   
    48   48   49 1   
    49   48   56 1   
    50   49   50 1   
    51   49   52 1   
    52   49   57 1   
    53   50   51 2   
    54   50   62 1   
    55   52   53 1   
    56   52   58 1   
    57   52   59 1   
    58   53   54 1   
    59   53   55 2   
    60   54   60 1   
    61   54   61 1   
    62   62   63 1   
    63   62   66 1   
    64   63   64 1   
    65   63   67 1   
    66   63   68 1   
    67   64   65 2   
    68   64   69 1   
    69   69   70 1   
    70   69   76 1   
    71   70   71 1   
    72   70   73 1   
    73   70   77 1   
    74   71   72 2   
    75   71   83 1   
    76   73   74 1   
    77   73   75 1   
    78   73   78 1   
    79   74   80 1   
    80   74   81 1   
    81   74   82 1   
    82   75   79 1   
    83   83   84 1   
    84   83   91 1   
    85   84   85 1   
    86   84   87 1   
    87   84   92 1   
    88   85   86 2   
    89   85  102 1   
    90   87   88 1   
    91   87   89 1   
    92   87   93 1   
    93   88   90 1   
    94   88   94 1   
    95   88   95 1   
    96   89   96 1   
    97   89   97 1   
    98   89   98 1   
    99   90   99 1   
   100   90  100 1   
   101   90  101 1   
   102  102  103 1   
   103  102  110 1   
   104  103  104 1   
   105  103  106 1   
   106  103  111 1   
   107  104  105 2   
   108  104  114 1   
   109  106  107 1   
   110  106  112 1   
   111  106  113 1   
   112  107  108 1   
   113  107  109 1   
   114  114  115 1   
   115  114  125 1   
   116  115  116 1   
   117  115  118 1   
   118  115  126 1   
   119  116  117 2   
   120  116  134 1   
   121  118  119 1   
   122  118  127 1   
   123  118  128 1   
   124  119  120 ar  
   125  119  121 ar  
   126  120  122 ar  
   127  120  129 1   
   128  121  123 ar  
   129  121  130 1   
   130  122  124 ar  
   131  122  131 1   
   132  123  124 ar  
   133  123  132 1   
   134  124  133 1   
   135  134  135 1   
   136  134  140 1   
   137  135  136 1   
   138  135  138 1   
   139  135  141 1   
   140  136  137 2   
   141  136  148 1   
   142  138  139 1   
   143  138  142 1   
   144  138  143 1   
   145  139  140 1   
   146  139  144 1   
   147  139  145 1   
   148  140  146 1   
   149  140  147 1   
   150  148  149 1   
   151  148  157 1   
   152  149  150 1   
   153  149  152 1   
   154  149  158 1   
   155  150  151 2   
   156  150  163 1   
   157  152  153 1   
   158  152  159 1   
   159  152  160 1   
   160  153  154 1   
   161  153  161 1   
   162  153  162 1   
   163  154  155 1   
   164  154  156 1   
   165  163  164 1   
   166  163  168 1   
   167  164  165 1   
   168  164  166 1   
   169  164  167 1   
   170  170  171 1   
   171  170  172 1   
   172  173  174 1   
   173  173  175 1   
@<TRIPOS>SUBSTRUCTURE
     1 MOL         1 TEMP              0 ****  ****    0 ROOT
