@<TRIPOS>MOLECULE
MOL
  172   171     1     0     0
SMALL
resp


@<TRIPOS>ATOM
      1 C1          0.1060    3.5500    5.6520 c3        1 MOL     -0.434312
      2 C2         -0.3350    3.2700    4.1810 c         1 MOL      0.709190
      3 O1          0.3570    3.7490    3.3020 o         1 MOL     -0.578889
      4 H1          1.1890    3.4570    5.7290 hc        1 MOL      0.103873
      5 H2         -0.1940    4.5590    5.9350 hc        1 MOL      0.103873
      6 H3         -0.3690    2.8290    6.3170 hc        1 MOL      0.103873
      7 N1         -1.3460    2.4400    3.9820 n         1 MOL     -0.576605
      8 C3         -1.9380    2.1200    2.6100 c3        1 MOL      0.271187
      9 C4         -2.5590    3.3800    2.0320 c         1 MOL      0.353063
     10 O2         -3.6220    3.8780    2.4930 o         1 MOL     -0.587307
     11 C5         -2.9940    1.0000    2.7380 c3        1 MOL     -0.169254
     12 C6         -3.7160    0.5840    1.4470 c         1 MOL      0.723643
     13 O3         -3.2920    1.0140    0.3340 o         1 MOL     -0.651320
     14 O4         -4.6590   -0.1580    1.5790 o         1 MOL     -0.651320
     15 H4         -1.6820    1.9910    4.8130 hn        1 MOL      0.317213
     16 H5         -1.2260    1.8980    1.8110 h1        1 MOL     -0.058516
     17 H6         -3.6500    1.2730    3.5670 hc        1 MOL      0.028646
     18 H7         -2.4260    0.1750    3.1860 hc        1 MOL      0.028646
     19 N2         -2.0340    4.0750    1.0220 n         1 MOL     -0.171776
     20 C7         -2.5050    5.3410    0.3860 c3        1 MOL      0.041339
     21 C8         -3.5010    5.1530   -0.7540 c         1 MOL      0.399329
     22 O5         -4.2140    6.1350   -1.1010 o         1 MOL     -0.570954
     23 C9         -1.2880    6.0540   -0.1210 c3        1 MOL     -0.302509
     24 H8         -1.1130    3.7420    0.7840 hn        1 MOL      0.244303
     25 H9         -3.0490    5.8020    1.2130 h1        1 MOL      0.079546
     26 H10        -0.9730    5.6280   -1.0770 hc        1 MOL      0.083968
     27 H11        -1.6160    7.0770   -0.3220 hc        1 MOL      0.083968
     28 H12        -0.4020    6.0580    0.5040 hc        1 MOL      0.083968
     29 N3         -3.5940    3.9540   -1.3060 n         1 MOL     -0.168441
     30 C10        -4.7960    3.7270   -2.1960 c3        1 MOL      0.064928
     31 C11        -5.9700    2.9540   -1.4870 c         1 MOL      0.345726
     32 O6         -7.0610    2.8610   -2.0970 o         1 MOL     -0.522027
     33 C12        -4.4210    3.0200   -3.4930 c3        1 MOL     -0.169548
     34 C13        -3.4210    1.8610   -3.2680 c         1 MOL      0.748910
     35 O7         -3.8730    0.7320   -2.9840 o         1 MOL     -0.757079
     36 O8         -2.1610    1.9830   -3.2780 o         1 MOL     -0.757079
     37 H13        -2.9860    3.2020   -1.0080 hn        1 MOL      0.201052
     38 H14        -5.2920    4.6600   -2.4730 h1        1 MOL      0.102124
     39 H15        -3.9040    3.8300   -4.0060 hc        1 MOL      0.024356
     40 H16        -5.3370    2.7220   -4.0160 hc        1 MOL      0.024356
     41 N4         -5.8540    2.6230   -0.2270 n         1 MOL     -0.174049
     42 C14        -6.9950    2.0920    0.5470 c3        1 MOL     -0.014979
     43 C15        -7.6640    0.8430   -0.1040 c         1 MOL      0.424273
     44 O9         -8.8790    0.8070   -0.1560 o         1 MOL     -0.554031
     45 H17        -4.9100    2.6450    0.1480 hn        1 MOL      0.176458
     46 H18        -7.6870    2.9220    0.6810 h1        1 MOL      0.056127
     47 H19        -6.7150    1.8320    1.5680 h1        1 MOL      0.056127
     48 N5         -6.8550   -0.1170   -0.5530 n         1 MOL     -0.007691
     49 C16        -7.2930   -1.2760   -1.1570 c3        1 MOL     -0.011947
     50 C17        -7.2330   -2.3620   -0.0950 c         1 MOL      0.398526
     51 O10        -8.1860   -3.1480   -0.0860 o         1 MOL     -0.583496
     52 C18        -6.3710   -1.6620   -2.3210 c3        1 MOL     -0.270833
     53 C19        -5.0500   -2.3030   -1.9960 c         1 MOL      0.610750
     54 N6         -4.9220   -3.5700   -2.1440 n         1 MOL     -0.700011
     55 O11        -4.2000   -1.6300   -1.4030 o         1 MOL     -0.529038
     56 H20        -5.8770    0.0650   -0.4120 hn        1 MOL      0.010394
     57 H21        -8.3460   -1.1470   -1.4290 h1        1 MOL      0.099777
     58 H22        -6.1040   -0.8470   -2.9970 hc        1 MOL      0.103004
     59 H23        -6.9130   -2.2870   -3.0390 hc        1 MOL      0.103004
     60 H24        -5.7020   -4.1030   -2.4910 hn        1 MOL      0.328268
     61 H25        -4.0280   -4.0190   -1.9630 hn        1 MOL      0.328268
     62 N7         -6.2840   -2.3830    0.7860 n         1 MOL     -0.061770
     63 C20        -6.1740   -3.3330    1.8380 c3        1 MOL     -0.144192
     64 C21        -4.8710   -4.0920    1.8610 c         1 MOL      0.564286
     65 O12        -4.6960   -4.9790    2.6410 o         1 MOL     -0.594528
     66 H26        -5.6070   -1.6430    0.7910 hn        1 MOL      0.128425
     67 H27        -6.9530   -4.0840    1.6990 h1        1 MOL      0.085785
     68 H28        -6.2700   -2.8650    2.8220 h1        1 MOL      0.085785
     69 N8         -3.8560   -3.7680    1.0720 n         1 MOL     -0.154870
     70 C22        -2.5060   -4.3490    1.1350 c3        1 MOL     -0.253587
     71 C23        -1.4410   -3.2940    0.9510 c         1 MOL      0.782550
     72 O13        -1.5780   -2.2480    0.2870 o         1 MOL     -0.628184
     73 C24        -2.2920   -5.3990    0.0400 c3        1 MOL      0.398225
     74 C25        -3.0880   -6.6630    0.2740 c3        1 MOL     -0.310986
     75 O14        -2.4080   -4.9260   -1.2340 oh        1 MOL     -0.615477
     76 H29        -4.0230   -3.1730    0.2600 hn        1 MOL      0.086432
     77 H30        -2.2660   -4.8170    2.0820 h1        1 MOL      0.129462
     78 H31        -1.3110   -5.8590    0.1750 h1        1 MOL      0.006199
     79 H32        -2.9350   -5.5380   -1.7490 ho        1 MOL      0.403537
     80 H33        -4.1540   -6.4800    0.4010 hc        1 MOL      0.075021
     81 H34        -2.9340   -7.3980   -0.5180 hc        1 MOL      0.075021
     82 H35        -2.8270   -7.1710    1.2020 hc        1 MOL      0.075021
     83 N9         -0.2790   -3.5600    1.5790 n         1 MOL     -0.679095
     84 C26         0.8440   -2.6040    1.5550 c3        1 MOL      0.050032
     85 C27         1.7280   -2.8630    0.2560 c         1 MOL      0.627645
     86 O15         2.1960   -3.9920    0.0860 o         1 MOL     -0.621585
     87 C28         1.6440   -2.5910    2.8970 c3        1 MOL      0.203135
     88 C29         0.7540   -2.5020    4.1860 c3        1 MOL      0.156037
     89 C30         2.7390   -1.5480    2.8710 c3        1 MOL     -0.031142
     90 C31         1.4770   -2.5950    5.4790 c3        1 MOL     -0.309351
     91 H36        -0.1410   -4.3590    2.1820 hn        1 MOL      0.322901
     92 H37         0.4630   -1.5920    1.4580 h1        1 MOL      0.059422
     93 H38         2.1560   -3.5560    2.8930 hc        1 MOL     -0.070064
     94 H39        -0.0060   -3.2870    4.1170 hc        1 MOL     -0.032540
     95 H40         0.2380   -1.5400    4.0870 hc        1 MOL     -0.032540
     96 H41         3.3750   -1.7890    2.0230 hc        1 MOL     -0.013993
     97 H42         2.3100   -0.5590    2.7060 hc        1 MOL     -0.013993
     98 H43         3.4050   -1.6290    3.7370 hc        1 MOL     -0.013993
     99 H44         0.6970   -2.2800    6.1800 hc        1 MOL      0.064367
    100 H45         1.9110   -3.5650    5.6900 hc        1 MOL      0.064367
    101 H46         2.2890   -1.8670    5.4700 hc        1 MOL      0.064367
    102 N10         1.9790   -1.8640   -0.5900 n         1 MOL     -0.134898
    103 C32         2.9670   -1.8120   -1.6320 c3        1 MOL      0.032715
    104 C33         4.3310   -1.4630   -0.9520 c         1 MOL      0.373256
    105 O16         4.3190   -0.7400    0.0640 o         1 MOL     -0.307432
    106 C34         2.5030   -0.8190   -2.6950 c3        1 MOL     -0.272371
    107 C35         1.1920   -1.1690   -3.2590 c         1 MOL      0.728395
    108 O17         1.0670   -2.3510   -3.6830 o         1 MOL     -0.696377
    109 O18         0.1700   -0.4370   -2.9980 o         1 MOL     -0.696377
    110 H47         1.5670   -0.9700   -0.3700 hn        1 MOL     -0.037255
    111 H48         3.0590   -2.8190   -2.0200 h1        1 MOL      0.069840
    112 H49         3.2770   -0.7360   -3.4630 hc        1 MOL      0.092721
    113 H50         2.4250    0.1990   -2.3200 hc        1 MOL      0.092721
    114 N11         5.4890   -1.8310   -1.5040 n         1 MOL     -0.560962
    115 C36         6.8430   -1.4030   -0.9790 c3        1 MOL      0.330852
    116 C37         7.0140    0.1120   -0.8830 c         1 MOL      0.308330
    117 O19         7.6170    0.5780    0.1350 o         1 MOL     -0.462907
    118 C38         7.9590   -2.1790   -1.7410 c3        1 MOL     -0.269995
    119 C39         9.2910   -1.7630   -1.1720 ca        1 MOL      0.037653
    120 C40        10.1360   -0.8170   -1.7790 ca        1 MOL     -0.125346
    121 C41         9.6910   -2.3000    0.0860 ca        1 MOL     -0.125346
    122 C42        11.3470   -0.3750   -1.2000 ca        1 MOL     -0.186340
    123 C43        10.8730   -1.8740    0.7200 ca        1 MOL     -0.186340
    124 C44        11.6490   -0.9180    0.0360 ca        1 MOL     -0.008558
    125 H51         5.4940   -2.4560   -2.2980 hn        1 MOL      0.309733
    126 H52         7.0040   -1.7920    0.0190 h1        1 MOL      0.060360
    127 H53         7.9690   -1.7970   -2.7620 hc        1 MOL      0.100638
    128 H54         7.8030   -3.2530   -1.6670 hc        1 MOL      0.100638
    129 H55         9.9470   -0.3940   -2.7550 ha        1 MOL      0.115014
    130 H56         9.0210   -3.0080    0.5380 ha        1 MOL      0.115014
    131 H57        11.9090    0.4590   -1.5830 ha        1 MOL      0.139543
    132 H58        11.2040   -2.2600    1.6710 ha        1 MOL      0.139543
    133 H59        12.5740   -0.6100    0.5050 ha        1 MOL      0.063477
    134 N12         6.4460    0.9440   -1.7760 n         1 MOL     -0.069756
    135 C45         6.3310    2.4050   -1.6140 c3        1 MOL     -0.040920
    136 C46         5.6040    2.8700   -0.3610 c         1 MOL      0.219333
    137 O20         5.8530    3.9500    0.1850 o         1 MOL     -0.495127
    138 C47         5.5260    2.9670   -2.8090 c3        1 MOL      0.047617
    139 C48         5.9220    1.9460   -3.8430 c3        1 MOL     -0.062426
    140 C49         5.8730    0.5860   -3.0970 c3        1 MOL     -0.048493
    141 H60         7.3550    2.7670   -1.5670 h1        1 MOL      0.083576
    142 H61         4.4770    3.0200   -2.5260 hc        1 MOL      0.041337
    143 H62         5.8080    3.9860   -3.0710 hc        1 MOL      0.041337
    144 H63         5.2330    2.0140   -4.6750 hc        1 MOL      0.024493
    145 H64         6.9430    2.1600   -4.1610 hc        1 MOL      0.024493
    146 H65         4.8200    0.3630   -2.9010 h1        1 MOL      0.039826
    147 H66         6.3720   -0.2530   -3.5960 h1        1 MOL      0.039826
    148 N13         4.6850    2.0360    0.1340 n         1 MOL      0.034421
    149 C50         3.8620    2.3760    1.2910 c3        1 MOL     -0.058250
    150 C51         4.5680    1.7750    2.5030 c         1 MOL      0.393634
    151 O21         4.5310    2.3410    3.6190 o         1 MOL     -0.552621
    152 C52         2.4950    1.7850    1.1660 c3        1 MOL      0.141944
    153 C53         1.6820    2.3580   -0.0110 c3        1 MOL     -0.314964
    154 C54         0.3320    1.6450   -0.2190 c         1 MOL      0.795746
    155 O22        -0.7000    2.2710   -0.5100 o         1 MOL     -0.714886
    156 O23         0.2790    0.3730   -0.2370 o         1 MOL     -0.714886
    157 H67         4.5230    1.1250   -0.2850 hn        1 MOL      0.062684
    158 H68         3.8110    3.4450    1.4900 h1        1 MOL      0.108155
    159 H69         1.9620    1.8090    2.1120 hc        1 MOL      0.032348
    160 H70         2.6110    0.7270    0.9260 hc        1 MOL      0.032348
    161 H71         2.3250    2.3070   -0.8850 hc        1 MOL      0.069006
    162 H72         1.4140    3.3730    0.3180 hc        1 MOL      0.069006
    163 N14         5.4230    0.7040    2.3720 n         1 MOL     -0.106655
    164 C55         6.1880    0.1410    3.5040 c3        1 MOL     -0.145034
    165 H73         7.2000   -0.0950    3.1760 h1        1 MOL      0.067421
    166 H74         6.2290    0.8690    4.3140 h1        1 MOL      0.067421
    167 H75         5.7000   -0.7680    3.8560 h1        1 MOL      0.067421
    168 H76         5.3320    0.1920    1.5060 hn        1 MOL      0.071300
    169 Ca1        -1.8660   -0.1480   -1.4870 Ca        1 MOL      1.760789
    170 O24        -1.5060   -2.6530   -2.8360 oh        1 MOL     -0.890029
    171 H77        -0.6040   -2.7250   -3.1710 ho        1 MOL      0.409722
    172 H78        -1.6140   -3.4300   -2.2980 ho        1 MOL      0.409722
@<TRIPOS>BOND
     1    1    2 1   
     2    1    4 1   
     3    1    5 1   
     4    1    6 1   
     5    2    3 2   
     6    2    7 1   
     7    7    8 1   
     8    7   15 1   
     9    8    9 1   
    10    8   11 1   
    11    8   16 1   
    12    9   10 2   
    13    9   19 1   
    14   11   12 1   
    15   11   17 1   
    16   11   18 1   
    17   12   13 1   
    18   12   14 1   
    19   19   20 1   
    20   19   24 1   
    21   20   21 1   
    22   20   23 1   
    23   20   25 1   
    24   21   22 2   
    25   21   29 1   
    26   23   26 1   
    27   23   27 1   
    28   23   28 1   
    29   29   30 1   
    30   29   37 1   
    31   30   31 1   
    32   30   33 1   
    33   30   38 1   
    34   31   32 2   
    35   31   41 1   
    36   33   34 1   
    37   33   39 1   
    38   33   40 1   
    39   34   35 1   
    40   34   36 1   
    41   41   42 1   
    42   41   45 1   
    43   42   43 1   
    44   42   46 1   
    45   42   47 1   
    46   43   44 2   
    47   43   48 1   
    48   48   49 1   
    49   48   56 1   
    50   49   50 1   
    51   49   52 1   
    52   49   57 1   
    53   50   51 2   
    54   50   62 1   
    55   52   53 1   
    56   52   58 1   
    57   52   59 1   
    58   53   54 1   
    59   53   55 2   
    60   54   60 1   
    61   54   61 1   
    62   62   63 1   
    63   62   66 1   
    64   63   64 1   
    65   63   67 1   
    66   63   68 1   
    67   64   65 2   
    68   64   69 1   
    69   69   70 1   
    70   69   76 1   
    71   70   71 1   
    72   70   73 1   
    73   70   77 1   
    74   71   72 2   
    75   71   83 1   
    76   73   74 1   
    77   73   75 1   
    78   73   78 1   
    79   74   80 1   
    80   74   81 1   
    81   74   82 1   
    82   75   79 1   
    83   83   84 1   
    84   83   91 1   
    85   84   85 1   
    86   84   87 1   
    87   84   92 1   
    88   85   86 2   
    89   85  102 1   
    90   87   88 1   
    91   87   89 1   
    92   87   93 1   
    93   88   90 1   
    94   88   94 1   
    95   88   95 1   
    96   89   96 1   
    97   89   97 1   
    98   89   98 1   
    99   90   99 1   
   100   90  100 1   
   101   90  101 1   
   102  102  103 1   
   103  102  110 1   
   104  103  104 1   
   105  103  106 1   
   106  103  111 1   
   107  104  105 2   
   108  104  114 1   
   109  106  107 1   
   110  106  112 1   
   111  106  113 1   
   112  107  108 1   
   113  107  109 1   
   114  114  115 1   
   115  114  125 1   
   116  115  116 1   
   117  115  118 1   
   118  115  126 1   
   119  116  117 2   
   120  116  134 1   
   121  118  119 1   
   122  118  127 1   
   123  118  128 1   
   124  119  120 ar  
   125  119  121 ar  
   126  120  122 ar  
   127  120  129 1   
   128  121  123 ar  
   129  121  130 1   
   130  122  124 ar  
   131  122  131 1   
   132  123  124 ar  
   133  123  132 1   
   134  124  133 1   
   135  134  135 1   
   136  134  140 1   
   137  135  136 1   
   138  135  138 1   
   139  135  141 1   
   140  136  137 2   
   141  136  148 1   
   142  138  139 1   
   143  138  142 1   
   144  138  143 1   
   145  139  140 1   
   146  139  144 1   
   147  139  145 1   
   148  140  146 1   
   149  140  147 1   
   150  148  149 1   
   151  148  157 1   
   152  149  150 1   
   153  149  152 1   
   154  149  158 1   
   155  150  151 2   
   156  150  163 1   
   157  152  153 1   
   158  152  159 1   
   159  152  160 1   
   160  153  154 1   
   161  153  161 1   
   162  153  162 1   
   163  154  155 1   
   164  154  156 1   
   165  163  164 1   
   166  163  168 1   
   167  164  165 1   
   168  164  166 1   
   169  164  167 1   
   170  170  171 1   
   171  170  172 1   
@<TRIPOS>SUBSTRUCTURE
     1 MOL         1 TEMP              0 ****  ****    0 ROOT
