@<TRIPOS>MOLECULE
MOL
  189   185     1     0     0
SMALL
resp


@<TRIPOS>ATOM
      1 C1          0.3440    3.3250    5.6780 c3        1 MOL     -0.360324
      2 C2         -0.6290    2.9360    4.5830 c         1 MOL      0.671687
      3 O1         -0.8470    1.7360    4.4080 o         1 MOL     -0.569961
      4 H1          1.2920    3.6260    5.2310 hc        1 MOL      0.090603
      5 H2         -0.0670    4.1560    6.2520 hc        1 MOL      0.090603
      6 H3          0.5080    2.4740    6.3380 hc        1 MOL      0.090603
      7 N1         -1.3000    3.8570    3.9870 n         1 MOL     -0.483903
      8 C3         -2.1410    3.6660    2.7710 c3        1 MOL      0.147475
      9 C4         -2.2460    4.9370    1.9160 c         1 MOL      0.498642
     10 O2         -2.3490    6.0490    2.4450 o         1 MOL     -0.570609
     11 C5         -3.5830    3.2610    3.2330 c3        1 MOL     -0.291655
     12 C6         -4.3990    2.4630    2.1670 c         1 MOL      0.770054
     13 O3         -5.5460    2.0530    2.5300 o         1 MOL     -0.692456
     14 O4         -3.9390    2.2520    0.9750 o         1 MOL     -0.692456
     15 H4         -1.2670    4.8200    4.2950 hn        1 MOL      0.286728
     16 H5         -1.7410    2.8530    2.1630 h1        1 MOL     -0.024799
     17 H6         -4.1450    4.1280    3.5600 hc        1 MOL      0.079421
     18 H7         -3.4300    2.6050    4.0980 hc        1 MOL      0.079421
     19 N2         -2.0970    4.6440    0.6330 n         1 MOL     -0.183181
     20 C7         -2.2230    5.6300   -0.4450 c3        1 MOL     -0.191515
     21 C8         -3.0150    5.0850   -1.6260 c         1 MOL      0.634807
     22 O5         -3.0250    5.8070   -2.6020 o         1 MOL     -0.584007
     23 C9         -0.8350    6.2290   -0.8640 c3        1 MOL      0.214466
     24 C10        -0.0420    5.0930   -1.5630 c3        1 MOL     -0.043716
     25 C11         0.0690    6.9070    0.2240 c3        1 MOL     -0.251444
     26 C12         1.3690    5.3630   -1.9390 c3        1 MOL     -0.430244
     27 H8         -1.7850    3.7010    0.4110 hn        1 MOL      0.077513
     28 H9         -2.7490    6.5510   -0.2010 h1        1 MOL      0.103113
     29 H10        -1.0010    6.9730   -1.6470 hc        1 MOL     -0.010371
     30 H11        -0.4500    4.8900   -2.5440 hc        1 MOL      0.073014
     31 H12        -0.1380    4.1080   -1.1020 hc        1 MOL      0.073014
     32 H13        -0.4490    7.3920    1.0540 hc        1 MOL      0.046990
     33 H14         0.7180    6.1980    0.7390 hc        1 MOL      0.046990
     34 H15         0.7690    7.5470   -0.3040 hc        1 MOL      0.046990
     35 H16         1.7290    4.6290   -2.6470 hc        1 MOL      0.123482
     36 H17         1.5610    6.3270   -2.4200 hc        1 MOL      0.123482
     37 H18         2.0430    5.1510   -1.1030 hc        1 MOL      0.123482
     38 N3         -3.7910    3.9550   -1.5770 n         1 MOL     -0.545206
     39 C13        -4.4920    3.4110   -2.7300 c3        1 MOL      0.112406
     40 C14        -5.7530    2.5750   -2.4150 c         1 MOL      0.435809
     41 O6         -6.4630    2.2280   -3.3150 o         1 MOL     -0.560689
     42 C15        -3.5300    2.6260   -3.5810 c3        1 MOL     -0.319275
     43 C16        -2.7810    1.4890   -2.8490 c         1 MOL      0.789525
     44 O7         -3.3290    1.0330   -1.8010 o         1 MOL     -0.710118
     45 O8         -1.6850    1.0240   -3.2190 o         1 MOL     -0.710118
     46 H19        -3.7600    3.4720   -0.6880 hn        1 MOL      0.268587
     47 H20        -4.9030    4.2330   -3.3290 h1        1 MOL      0.083732
     48 H21        -2.8180    3.3110   -4.0410 hc        1 MOL      0.084568
     49 H22        -4.0840    2.1190   -4.3790 hc        1 MOL      0.084568
     50 N4         -5.9840    2.2770   -1.2030 n         1 MOL     -0.289197
     51 C17        -7.2310    1.7270   -0.6170 c3        1 MOL      0.062891
     52 C18        -7.6470    0.3370   -1.0880 c         1 MOL      0.401236
     53 O9         -8.7970    0.0180   -1.2500 o         1 MOL     -0.584370
     54 H23        -5.2100    2.3360   -0.5570 hn        1 MOL      0.200448
     55 H24        -8.0170    2.4590   -0.4270 h1        1 MOL      0.045149
     56 H25        -6.9610    1.5890    0.4350 h1        1 MOL      0.045149
     57 N5         -6.6640   -0.5360   -1.4270 n         1 MOL     -0.042972
     58 C19        -6.7820   -1.8590   -2.0530 c3        1 MOL     -0.136553
     59 C20        -7.0200   -2.9310   -0.9880 c         1 MOL      0.467036
     60 O10        -7.2110   -4.0820   -1.2790 o         1 MOL     -0.547860
     61 C21        -5.5460   -2.0980   -2.9190 c3        1 MOL     -0.206103
     62 C22        -4.1200   -2.1140   -2.1740 c         1 MOL      0.719831
     63 O11        -4.0180   -1.7630   -0.9830 o         1 MOL     -0.658941
     64 O12        -3.2260   -2.5890   -2.8380 o         1 MOL     -0.658941
     65 H26        -5.7050   -0.3160   -1.2060 hn        1 MOL      0.110318
     66 H27        -7.6850   -1.8390   -2.6640 h1        1 MOL      0.129953
     67 H28        -5.6010   -1.3920   -3.7450 hc        1 MOL      0.066108
     68 H29        -5.5790   -3.0550   -3.4300 hc        1 MOL      0.066108
     69 N6         -6.9550   -2.5660    0.3330 n         1 MOL     -0.227691
     70 C23        -7.0400   -3.4850    1.4110 c3        1 MOL     -0.173205
     71 C24        -5.7870   -4.3420    1.6300 c         1 MOL      0.420051
     72 O13        -5.8590   -5.2430    2.4740 o         1 MOL     -0.570435
     73 H30        -6.7990   -1.5680    0.4620 hn        1 MOL      0.153059
     74 H31        -7.9510   -4.0760    1.3090 h1        1 MOL      0.099572
     75 H32        -7.2880   -2.9160    2.2970 h1        1 MOL      0.099572
     76 N7         -4.6670   -3.9520    1.0110 n         1 MOL     -0.109071
     77 C25        -3.3270   -4.5520    1.1500 c3        1 MOL     -0.160696
     78 C26        -2.2880   -3.5380    1.5590 c         1 MOL      0.595722
     79 O14        -2.5950   -2.2800    1.6110 o         1 MOL     -0.680726
     80 C27        -2.9860   -4.9940   -0.2160 c3        1 MOL      0.204526
     81 C28        -3.8780   -6.0180   -0.9350 c3        1 MOL     -0.326291
     82 C29        -3.3990   -6.3640   -2.3270 c         1 MOL      0.613912
     83 N8         -3.4170   -5.4160   -3.2530 n         1 MOL     -0.690072
     84 O15        -2.8870   -7.4300   -2.7350 o         1 MOL     -0.615869
     85 H33        -4.8140   -3.2400    0.3110 hn        1 MOL      0.292336
     86 H34        -3.4430   -5.4620    1.7460 h1        1 MOL      0.076888
     87 H35        -1.9950   -5.3940   -0.4150 hc        1 MOL     -0.015499
     88 H36        -2.9240   -4.0240   -0.7240 hc        1 MOL     -0.015499
     89 H37        -4.8880   -5.6050   -0.8980 hc        1 MOL      0.089045
     90 H38        -3.8270   -6.8830   -0.2710 hc        1 MOL      0.089045
     91 H39        -3.6510   -4.4370   -3.1440 hn        1 MOL      0.329257
     92 H40        -2.9810   -5.7140   -4.1070 hn        1 MOL      0.329257
     93 N9         -1.0820   -3.9360    1.8310 n         1 MOL     -0.615207
     94 C30         0.0360   -3.0500    2.1910 c3        1 MOL      0.479442
     95 C31         1.1130   -3.3270    1.1210 c         1 MOL      0.419337
     96 O16         1.6280   -4.4250    1.0170 o         1 MOL     -0.574106
     97 C32         0.4800   -3.0400    3.6610 c3        1 MOL      0.204281
     98 C33         1.0650   -4.2990    4.2020 c3        1 MOL     -0.299814
     99 C34         1.3730   -1.9070    3.8630 c3        1 MOL     -0.299814
    100 H41        -0.8820   -4.9170    1.6710 hn        1 MOL      0.275376
    101 H42        -0.3570   -2.0580    1.9630 h1        1 MOL     -0.040376
    102 H43        -0.4390   -2.8830    4.2230 hc        1 MOL      0.001349
    103 H44         1.0570   -4.2950    5.2940 hc        1 MOL      0.058830
    104 H45         0.4990   -5.1360    3.7970 hc        1 MOL      0.058830
    105 H46         2.0890   -4.4530    3.8490 hc        1 MOL      0.058830
    106 H47         0.7370   -1.0510    3.6270 hc        1 MOL      0.058830
    107 H48         1.5930   -1.8120    4.9200 hc        1 MOL      0.058830
    108 H49         2.2260   -1.8800    3.1810 hc        1 MOL      0.058830
    109 N10         1.6300   -2.2830    0.4640 n         1 MOL     -0.149696
    110 C35         2.4880   -2.3940   -0.6690 c3        1 MOL      0.248078
    111 C36         3.8910   -2.0260   -0.2250 c         1 MOL      0.130309
    112 O17         4.0150   -1.3600    0.8150 o         1 MOL     -0.052486
    113 C37         1.9880   -1.4590   -1.7290 c3        1 MOL     -0.205916
    114 C38         2.8340   -1.2920   -2.9670 c         1 MOL      0.736942
    115 N11         2.8490   -2.3000   -3.8700 n         1 MOL     -0.799485
    116 O18         3.7230   -0.4250   -3.0840 o         1 MOL     -0.557875
    117 H50         1.2860   -1.3680    0.7350 hn        1 MOL     -0.112579
    118 H51         2.5450   -3.4100   -1.0470 h1        1 MOL      0.021252
    119 H52         1.9000   -0.5180   -1.2010 hc        1 MOL      0.072340
    120 H53         1.0340   -1.8390   -2.1140 hc        1 MOL      0.072340
    121 H54         2.4190   -3.1880   -3.6550 hn        1 MOL      0.360590
    122 H55         3.3460   -2.1450   -4.7320 hn        1 MOL      0.360590
    123 N12         4.9520   -2.4260   -0.9540 n         1 MOL     -0.425505
    124 C39         6.3580   -2.3000   -0.4530 c3        1 MOL      0.157297
    125 C40         6.7700   -0.8130   -0.3540 c         1 MOL      0.659266
    126 O19         7.6470   -0.4780    0.4700 o         1 MOL     -0.523028
    127 C41         7.3550   -3.1810   -1.2580 c3        1 MOL     -0.145360
    128 C42         8.7680   -2.8160   -0.9780 ca        1 MOL     -0.100538
    129 C43         9.3920   -3.0770    0.2450 ca        1 MOL     -0.059837
    130 C44         9.5890   -2.2980   -1.9950 ca        1 MOL     -0.059837
    131 C45        10.7650   -2.9310    0.4080 ca        1 MOL     -0.316258
    132 C46        10.9760   -2.0540   -1.8520 ca        1 MOL     -0.316258
    133 C47        11.5750   -2.3940   -0.6190 ca        1 MOL      0.433142
    134 O20        12.9170   -2.3550   -0.6190 oh        1 MOL     -0.546334
    135 H56         4.7250   -2.8640   -1.8320 hn        1 MOL      0.246971
    136 H57         6.3990   -2.6420    0.5870 h1        1 MOL      0.067869
    137 H58         7.1750   -3.1190   -2.3330 hc        1 MOL      0.069576
    138 H59         7.2400   -4.2550   -1.0790 hc        1 MOL      0.069576
    139 H60         8.8370   -3.6770    0.9560 ha        1 MOL      0.104175
    140 H61         9.1660   -2.1910   -2.9840 ha        1 MOL      0.104175
    141 H62        11.3450   -3.3420    1.2300 ha        1 MOL      0.142448
    142 H63        11.6090   -1.6960   -2.6600 ha        1 MOL      0.142448
    143 H64        13.3070   -2.2230   -1.4810 ho        1 MOL      0.372448
    144 N13         6.0760    0.1090   -1.0370 n         1 MOL     -0.502288
    145 C48         6.3180    1.5290   -0.7660 c3        1 MOL     -0.080762
    146 C49         5.5600    2.1180    0.5020 c         1 MOL      0.255544
    147 O21         6.0820    3.0780    1.0940 o         1 MOL     -0.491669
    148 C50         5.9440    2.2730   -2.0770 c3        1 MOL      0.184302
    149 C51         5.8420    3.8180   -2.0580 c3        1 MOL     -0.420108
    150 C52         5.8330    4.3850   -3.4920 c         1 MOL      0.762644
    151 O22         6.6180    4.0370   -4.4230 o         1 MOL     -0.744341
    152 O23         4.9210    5.2200   -3.7490 o         1 MOL     -0.744341
    153 H65         5.3130   -0.1480   -1.6500 hn        1 MOL      0.258792
    154 H66         7.3800    1.7510   -0.6690 h1        1 MOL      0.136747
    155 H67         5.0870    1.8430   -2.5880 hc        1 MOL     -0.003398
    156 H68         6.7340    1.9780   -2.7640 hc        1 MOL     -0.003398
    157 H69         6.7090    4.1280   -1.4620 hc        1 MOL      0.077116
    158 H70         4.9450    4.0810   -1.4910 hc        1 MOL      0.077116
    159 N14         4.4450    1.5620    0.9200 n         1 MOL     -0.092195
    160 C53         3.7130    1.9100    2.0910 c3        1 MOL     -0.087883
    161 C54         4.3840    1.1550    3.3110 c         1 MOL      0.481345
    162 O24         4.4590    1.6640    4.4180 o         1 MOL     -0.568017
    163 C55         2.2660    1.4830    1.9810 c3        1 MOL      0.062801
    164 C56         1.4350    2.1580    0.8560 c3        1 MOL     -0.213904
    165 C57         0.0730    1.4720    0.6860 c         1 MOL      0.593229
    166 O25        -0.9300    1.9140    0.0610 o         1 MOL     -0.562310
    167 O26        -0.1110    0.2910    1.0760 o         1 MOL     -0.562310
    168 H71         4.1620    0.7790    0.3450 hn        1 MOL      0.146907
    169 H72         3.6950    2.9830    2.2830 h1        1 MOL      0.092560
    170 H73         1.8090    1.7000    2.9460 hc        1 MOL      0.024341
    171 H74         2.3050    0.3960    1.8800 hc        1 MOL      0.024341
    172 H75         1.9120    1.8550   -0.0770 hc        1 MOL      0.099087
    173 H76         1.3980    3.2250    1.0960 hc        1 MOL      0.099087
    174 N15         4.8450   -0.0790    3.0440 n         1 MOL      0.023451
    175 C58         5.3650   -1.0260    4.0260 c3        1 MOL     -0.224263
    176 H77         6.4530   -0.9610    4.0510 h1        1 MOL      0.081391
    177 H78         4.9630   -0.7860    5.0100 h1        1 MOL      0.081391
    178 H79         5.0680   -2.0380    3.7480 h1        1 MOL      0.081391
    179 H80         4.6590   -0.5390    2.1700 hn        1 MOL     -0.165559
    180 Ca1        -2.6330    0.0670    0.4280 Ca        1 MOL      1.735933
    181 O27        -2.4630    0.2470    3.1430 oh        1 MOL     -0.834816
    182 H81        -1.7520    0.6450    3.6230 ho        1 MOL      0.394198
    183 H82        -2.7530   -0.4870    3.6840 ho        1 MOL      0.394198
    184 O28        -1.3200   -1.0190   -1.6840 oh        1 MOL     -0.834816
    185 H83        -1.8370   -1.6940   -2.1190 ho        1 MOL      0.394198
    186 H84        -1.3180   -0.2920   -2.2940 ho        1 MOL      0.394198
    187 O29        -5.1800   -0.5100    1.7330 oh        1 MOL     -0.834816
    188 H85        -5.5360    0.3420    1.9740 ho        1 MOL      0.394198
    189 H86        -5.4460   -1.1000    2.4350 ho        1 MOL      0.394198
@<TRIPOS>BOND
     1    1    2 1   
     2    1    4 1   
     3    1    5 1   
     4    1    6 1   
     5    2    3 2   
     6    2    7 1   
     7    7    8 1   
     8    7   15 1   
     9    8    9 1   
    10    8   11 1   
    11    8   16 1   
    12    9   10 2   
    13    9   19 1   
    14   11   12 1   
    15   11   17 1   
    16   11   18 1   
    17   12   13 1   
    18   12   14 1   
    19   19   20 1   
    20   19   27 1   
    21   20   21 1   
    22   20   23 1   
    23   20   28 1   
    24   21   22 2   
    25   21   38 1   
    26   23   24 1   
    27   23   25 1   
    28   23   29 1   
    29   24   26 1   
    30   24   30 1   
    31   24   31 1   
    32   25   32 1   
    33   25   33 1   
    34   25   34 1   
    35   26   35 1   
    36   26   36 1   
    37   26   37 1   
    38   38   39 1   
    39   38   46 1   
    40   39   40 1   
    41   39   42 1   
    42   39   47 1   
    43   40   41 2   
    44   40   50 1   
    45   42   43 1   
    46   42   48 1   
    47   42   49 1   
    48   43   44 1   
    49   43   45 1   
    50   50   51 1   
    51   50   54 1   
    52   51   52 1   
    53   51   55 1   
    54   51   56 1   
    55   52   53 2   
    56   52   57 1   
    57   57   58 1   
    58   57   65 1   
    59   58   59 1   
    60   58   61 1   
    61   58   66 1   
    62   59   60 2   
    63   59   69 1   
    64   61   62 1   
    65   61   67 1   
    66   61   68 1   
    67   62   63 1   
    68   62   64 1   
    69   69   70 1   
    70   69   73 1   
    71   70   71 1   
    72   70   74 1   
    73   70   75 1   
    74   71   72 2   
    75   71   76 1   
    76   76   77 1   
    77   76   85 1   
    78   77   78 1   
    79   77   80 1   
    80   77   86 1   
    81   78   79 2   
    82   78   93 1   
    83   80   81 1   
    84   80   87 1   
    85   80   88 1   
    86   81   82 1   
    87   81   89 1   
    88   81   90 1   
    89   82   83 1   
    90   82   84 2   
    91   83   91 1   
    92   83   92 1   
    93   93   94 1   
    94   93  100 1   
    95   94   95 1   
    96   94   97 1   
    97   94  101 1   
    98   95   96 2   
    99   95  109 1   
   100   97   98 1   
   101   97   99 1   
   102   97  102 1   
   103   98  103 1   
   104   98  104 1   
   105   98  105 1   
   106   99  106 1   
   107   99  107 1   
   108   99  108 1   
   109  109  110 1   
   110  109  117 1   
   111  110  111 1   
   112  110  113 1   
   113  110  118 1   
   114  111  112 2   
   115  111  123 1   
   116  113  114 1   
   117  113  119 1   
   118  113  120 1   
   119  114  115 1   
   120  114  116 2   
   121  115  121 1   
   122  115  122 1   
   123  123  124 1   
   124  123  135 1   
   125  124  125 1   
   126  124  127 1   
   127  124  136 1   
   128  125  126 2   
   129  125  144 1   
   130  127  128 1   
   131  127  137 1   
   132  127  138 1   
   133  128  129 ar  
   134  128  130 ar  
   135  129  131 ar  
   136  129  139 1   
   137  130  132 ar  
   138  130  140 1   
   139  131  133 ar  
   140  131  141 1   
   141  132  133 ar  
   142  132  142 1   
   143  133  134 1   
   144  134  143 1   
   145  144  145 1   
   146  144  153 1   
   147  145  146 1   
   148  145  148 1   
   149  145  154 1   
   150  146  147 2   
   151  146  159 1   
   152  148  149 1   
   153  148  155 1   
   154  148  156 1   
   155  149  150 1   
   156  149  157 1   
   157  149  158 1   
   158  150  151 1   
   159  150  152 1   
   160  159  160 1   
   161  159  168 1   
   162  160  161 1   
   163  160  163 1   
   164  160  169 1   
   165  161  162 2   
   166  161  174 1   
   167  163  164 1   
   168  163  170 1   
   169  163  171 1   
   170  164  165 1   
   171  164  172 1   
   172  164  173 1   
   173  165  166 1   
   174  165  167 1   
   175  174  175 1   
   176  174  179 1   
   177  175  176 1   
   178  175  177 1   
   179  175  178 1   
   180  181  182 1   
   181  181  183 1   
   182  184  185 1   
   183  184  186 1   
   184  187  188 1   
   185  187  189 1   
@<TRIPOS>SUBSTRUCTURE
     1 MOL         1 TEMP              0 ****  ****    0 ROOT
