@<TRIPOS>MOLECULE
MOL
  183   181     1     0     0
SMALL
resp


@<TRIPOS>ATOM
      1 C1         -0.7980    1.5280    6.3880 c3        1 MOL     -0.315245
      2 C2         -1.1690    1.6710    4.8630 c         1 MOL      0.787739
      3 O1         -0.4920    2.3600    4.0810 o         1 MOL     -0.620018
      4 H1          0.2640    1.7350    6.5240 hc        1 MOL      0.072746
      5 H2         -1.3830    2.2360    6.9730 hc        1 MOL      0.072746
      6 H3         -1.0150    0.5130    6.7220 hc        1 MOL      0.072746
      7 N1         -2.2950    1.0320    4.4200 n         1 MOL     -0.668581
      8 C3         -2.7440    0.9820    3.0260 c3        1 MOL      0.202932
      9 C4         -3.3950    2.3090    2.6340 c         1 MOL      0.576743
     10 O2         -4.4090    2.7090    3.2400 o         1 MOL     -0.588997
     11 C5         -3.8030   -0.1910    2.7890 c3        1 MOL     -0.371660
     12 C6         -4.5450   -0.1370    1.4420 c         1 MOL      0.754816
     13 O3         -5.6360   -0.6750    1.3640 o         1 MOL     -0.638193
     14 O4         -3.9980    0.4500    0.4610 o         1 MOL     -0.638193
     15 H4         -2.8560    0.4410    5.0210 hn        1 MOL      0.325333
     16 H5         -1.9310    0.8410    2.3170 h1        1 MOL      0.063197
     17 H6         -4.5930   -0.0270    3.5150 hc        1 MOL      0.081155
     18 H7         -3.4020   -1.2070    2.8290 hc        1 MOL      0.081155
     19 N2         -2.8060    3.0900    1.7240 n         1 MOL     -0.387621
     20 C7         -3.3230    4.3250    1.2590 c3        1 MOL     -0.086820
     21 C8         -4.4880    4.2500    0.2760 c         1 MOL      0.374398
     22 O5         -5.3240    5.1900    0.2920 o         1 MOL     -0.580379
     23 C9         -2.1620    5.2240    0.5810 c3        1 MOL      0.352935
     24 C10        -0.9790    5.2150    1.5320 c3        1 MOL     -0.119700
     25 C11        -2.6330    6.6080    0.1600 c3        1 MOL     -0.348632
     26 C12         0.2610    5.8600    0.8640 c3        1 MOL     -0.192513
     27 H8         -1.9860    2.6950    1.2730 hn        1 MOL      0.230704
     28 H9         -3.7750    4.8450    2.0950 h1        1 MOL      0.082674
     29 H10        -1.9460    4.7390   -0.3710 hc        1 MOL      0.015829
     30 H11        -0.6500    4.2290    1.8620 hc        1 MOL      0.041596
     31 H12        -1.2040    5.7820    2.4450 hc        1 MOL      0.041596
     32 H13        -2.8810    7.2300    1.0190 hc        1 MOL      0.066602
     33 H14        -1.7620    7.0190   -0.3420 hc        1 MOL      0.066602
     34 H15        -3.4630    6.5790   -0.5550 hc        1 MOL      0.066602
     35 H16         0.1430    6.8380    0.4110 hc        1 MOL      0.043405
     36 H17         1.1770    5.9280    1.4590 hc        1 MOL      0.043405
     37 H18         0.5820    5.1210    0.1310 hc        1 MOL      0.043405
     38 N3         -4.6560    3.1590   -0.4300 n         1 MOL     -0.022814
     39 C13        -5.7170    3.1130   -1.4640 c3        1 MOL     -0.063268
     40 C14        -7.0170    2.5030   -0.9110 c         1 MOL      0.451151
     41 O6         -8.0480    2.7260   -1.5780 o         1 MOL     -0.557569
     42 C15        -5.3200    2.2000   -2.6680 c3        1 MOL     -0.137842
     43 C16        -3.8610    2.4520   -3.1150 c         1 MOL      0.659783
     44 O7         -3.5900    3.3710   -3.8960 o         1 MOL     -0.680878
     45 O8         -2.9930    1.7150   -2.6540 o         1 MOL     -0.680878
     46 H19        -3.9970    2.4000   -0.3860 hn        1 MOL      0.116037
     47 H20        -5.9220    4.1240   -1.8290 h1        1 MOL      0.105108
     48 H21        -6.0600    2.3050   -3.4680 hc        1 MOL      0.038434
     49 H22        -5.3750    1.1790   -2.3000 hc        1 MOL      0.038434
     50 N4         -6.9900    1.7970    0.2150 n         1 MOL     -0.324179
     51 C17        -8.0550    0.9280    0.5980 c3        1 MOL     -0.039244
     52 C18        -8.1230   -0.2420   -0.2930 c         1 MOL      0.498575
     53 O9         -9.1840   -0.8300   -0.2810 o         1 MOL     -0.619325
     54 H23        -6.1190    1.6870    0.7100 hn        1 MOL      0.241776
     55 H24        -9.0080    1.4730    0.5660 h1        1 MOL      0.078104
     56 H25        -7.9870    0.6680    1.6530 h1        1 MOL      0.078104
     57 N5         -7.0480   -0.6830   -0.9620 n         1 MOL     -0.032996
     58 C19        -7.0970   -1.8570   -1.9220 c3        1 MOL     -0.071226
     59 C20        -6.9520   -3.2310   -1.1990 c         1 MOL      0.417752
     60 O10        -7.0470   -4.3310   -1.7600 o         1 MOL     -0.562452
     61 C21        -6.0530   -1.7210   -3.0150 c3        1 MOL     -0.111831
     62 C22        -4.5960   -1.6570   -2.4740 c         1 MOL      0.791448
     63 O11        -3.7210   -1.2830   -3.2240 o         1 MOL     -0.769944
     64 O12        -4.2590   -1.9440   -1.3130 o         1 MOL     -0.769944
     65 H26        -6.1370   -0.2880   -0.7530 hn        1 MOL     -0.109603
     66 H27        -8.1200   -1.8170   -2.3060 h1        1 MOL      0.094345
     67 H28        -6.3090   -0.8510   -3.6180 hc        1 MOL      0.041652
     68 H29        -6.1370   -2.5550   -3.7170 hc        1 MOL      0.041652
     69 N6         -6.6540   -3.1570    0.1260 n         1 MOL     -0.175650
     70 C23        -6.4380   -4.2640    1.0570 c3        1 MOL     -0.231661
     71 C24        -5.0060   -4.6710    1.2650 c         1 MOL      0.570443
     72 O13        -4.6960   -5.5960    2.0040 o         1 MOL     -0.610996
     73 H30        -6.4550   -2.2370    0.4760 hn        1 MOL      0.219133
     74 H31        -6.9910   -5.1240    0.6760 h1        1 MOL      0.096932
     75 H32        -6.9470   -3.9270    1.9550 h1        1 MOL      0.096932
     76 N7         -4.1220   -3.9240    0.6500 n         1 MOL     -0.240489
     77 C25        -2.6650   -4.1630    0.7850 c3        1 MOL      0.047157
     78 C26        -1.7160   -2.9880    1.0720 c         1 MOL      0.552820
     79 O14        -2.0850   -1.8130    0.9680 o         1 MOL     -0.676909
     80 C27        -2.1100   -5.1090   -0.3410 c3        1 MOL     -0.140404
     81 C28        -2.2560   -4.6440   -1.7390 c3        1 MOL     -0.078669
     82 C29        -1.3210   -3.5900   -2.3270 c         1 MOL      0.616900
     83 N8         -1.0000   -3.7930   -3.5580 n         1 MOL     -0.693331
     84 O15        -0.9150   -2.6270   -1.6820 o         1 MOL     -0.638276
     85 H33        -4.4010   -3.1860    0.0120 hn        1 MOL      0.341386
     86 H34        -2.4640   -4.7900    1.6460 h1        1 MOL      0.022408
     87 H35        -2.7240   -5.9920   -0.2090 hc        1 MOL      0.041049
     88 H36        -1.0610   -5.2990   -0.1640 hc        1 MOL      0.041049
     89 H37        -3.3030   -4.4110   -1.9450 hc        1 MOL      0.034985
     90 H38        -2.0130   -5.5260   -2.3350 hc        1 MOL      0.034985
     91 H39        -1.2760   -4.6530   -4.0050 hn        1 MOL      0.341258
     92 H40        -0.3900   -3.1040   -3.9780 hn        1 MOL      0.341258
     93 N9         -0.5200   -3.4040    1.5080 n         1 MOL     -0.347806
     94 C30         0.5710   -2.4470    1.8610 c3        1 MOL      0.017963
     95 C31         1.6580   -2.9190    0.8950 c         1 MOL      0.301940
     96 O16         2.4020   -3.8480    1.2030 o         1 MOL     -0.543430
     97 C32         0.9600   -2.5360    3.4150 c3        1 MOL      0.255590
     98 C33         2.0290   -1.5100    3.8980 c3        1 MOL     -0.270772
     99 C34        -0.3250   -2.3840    4.2080 c3        1 MOL     -0.270772
    100 H41        -0.4100   -4.3950    1.6890 hn        1 MOL      0.275625
    101 H42         0.3810   -1.4040    1.5900 h1        1 MOL      0.145918
    102 H43         1.3480   -3.5350    3.5810 hc        1 MOL     -0.041456
    103 H44         1.7040   -0.5250    3.5410 hc        1 MOL      0.048603
    104 H45         2.1600   -1.4940    4.9830 hc        1 MOL      0.048603
    105 H46         2.9560   -1.6960    3.3550 hc        1 MOL      0.048603
    106 H47        -0.9540   -3.2640    4.0670 hc        1 MOL      0.048603
    107 H48        -0.1390   -2.4090    5.2860 hc        1 MOL      0.048603
    108 H49        -0.8210   -1.4350    4.0010 hc        1 MOL      0.048603
    109 N10         1.7010   -2.2920   -0.2700 n         1 MOL     -0.129344
    110 C35         2.8120   -2.3000   -1.1520 c3        1 MOL      0.180542
    111 C36         4.1380   -1.7900   -0.4670 c         1 MOL      0.233807
    112 O17         4.0910   -1.0500    0.5420 o         1 MOL     -0.229824
    113 C37         2.3670   -1.4190   -2.3480 c3        1 MOL     -0.412902
    114 C38         3.4200   -1.4800   -3.4280 c         1 MOL      0.677269
    115 N11         3.9680   -0.3880   -3.8370 n         1 MOL     -0.740878
    116 O18         3.9100   -2.5500   -3.7680 o         1 MOL     -0.603849
    117 H50         1.1020   -1.4880   -0.3070 hn        1 MOL      0.228205
    118 H51         2.9210   -3.3410   -1.4470 h1        1 MOL      0.030520
    119 H52         2.2280   -0.3940   -2.0060 hc        1 MOL      0.119715
    120 H53         1.4000   -1.6800   -2.7740 hc        1 MOL      0.119715
    121 H54         3.3910    0.4120   -3.6580 hn        1 MOL      0.369167
    122 H55         4.7110   -0.3550   -4.5160 hn        1 MOL      0.369167
    123 N12         5.3230   -2.2100   -0.9940 n         1 MOL     -0.435120
    124 C39         6.6090   -1.8210   -0.3540 c3        1 MOL      0.091241
    125 C40         6.8900   -0.3120   -0.2510 c         1 MOL      0.668887
    126 O19         7.6010    0.1890    0.6370 o         1 MOL     -0.523554
    127 C41         7.7790   -2.5640   -1.0530 c3        1 MOL     -0.212447
    128 C42         9.1410   -2.2780   -0.3720 ca        1 MOL     -0.031636
    129 C43         9.2850   -2.5540    1.0210 ca        1 MOL     -0.097687
    130 C44        10.1660   -1.7910   -1.1490 ca        1 MOL     -0.097687
    131 C45        10.4720   -2.0430    1.5890 ca        1 MOL     -0.330916
    132 C46        11.3510   -1.3230   -0.5510 ca        1 MOL     -0.330916
    133 C47        11.4670   -1.3910    0.8330 ca        1 MOL      0.430985
    134 O20        12.6200   -1.0900    1.4880 oh        1 MOL     -0.517711
    135 H56         5.3480   -2.9520   -1.6710 hn        1 MOL      0.314588
    136 H57         6.5650   -2.0650    0.7090 h1        1 MOL      0.099377
    137 H58         7.7810   -2.3760   -2.1270 hc        1 MOL      0.086153
    138 H59         7.7020   -3.6460   -1.0070 hc        1 MOL      0.086153
    139 H60         8.6290   -3.1610    1.6180 ha        1 MOL      0.130038
    140 H61        10.0090   -1.7210   -2.2180 ha        1 MOL      0.130038
    141 H62        10.6300   -2.2640    2.6410 ha        1 MOL      0.153595
    142 H63        12.1400   -0.8590   -1.1290 ha        1 MOL      0.153595
    143 H64        13.1680   -0.5250    0.9420 ho        1 MOL      0.354223
    144 N13         6.2660    0.5260   -1.0900 n         1 MOL     -0.594420
    145 C48         6.3400    1.9550   -1.1030 c3        1 MOL      0.143836
    146 C49         5.3590    2.4770    0.0030 c         1 MOL      0.232893
    147 O21         5.6680    3.5900    0.4480 o         1 MOL     -0.499060
    148 C50         5.9030    2.5090   -2.4110 c3        1 MOL      0.216954
    149 C51         6.4060    3.8920   -2.7120 c3        1 MOL     -0.292278
    150 C52         5.9060    4.2860   -4.1090 c         1 MOL      0.727861
    151 O22         4.7500    4.7300   -4.3340 o         1 MOL     -0.746572
    152 O23         6.7360    4.1350   -5.0500 o         1 MOL     -0.746572
    153 H65         5.5580    0.1900   -1.7320 hn        1 MOL      0.262739
    154 H66         7.3580    2.3130   -0.9940 h1        1 MOL      0.071077
    155 H67         4.8200    2.3880   -2.5130 hc        1 MOL     -0.060151
    156 H68         6.4000    1.8780   -3.1390 hc        1 MOL     -0.060151
    157 H69         7.4870    3.9190   -2.6720 hc        1 MOL      0.042664
    158 H70         6.1890    4.6520   -1.9530 hc        1 MOL      0.042664
    159 N14         4.3190    1.7120    0.3650 n         1 MOL     -0.023811
    160 C53         3.5670    2.0700    1.5880 c3        1 MOL     -0.175783
    161 C54         4.2150    1.6100    2.9270 c         1 MOL      0.536815
    162 O24         4.1080    2.2820    3.8950 o         1 MOL     -0.540462
    163 C55         2.1320    1.4450    1.3270 c3        1 MOL      0.138913
    164 C56         1.3980    1.9600    0.0270 c3        1 MOL     -0.236734
    165 C57         0.0790    1.2890   -0.0980 c         1 MOL      0.788105
    166 O25        -1.0600    1.8590   -0.0820 o         1 MOL     -0.778356
    167 O26         0.1530    0.0460   -0.2850 o         1 MOL     -0.778356
    168 H71         4.1680    0.8120   -0.0800 hn        1 MOL      0.139687
    169 H72         3.4260    3.1470    1.6360 h1        1 MOL      0.123913
    170 H73         1.5570    1.8250    2.1730 hc        1 MOL      0.019522
    171 H74         2.1470    0.3590    1.3710 hc        1 MOL      0.019522
    172 H75         2.0030    1.8420   -0.8720 hc        1 MOL      0.059751
    173 H76         1.2670    3.0280    0.2110 hc        1 MOL      0.059751
    174 N15         4.9280    0.4280    2.8380 n         1 MOL     -0.019459
    175 C58         5.8110   -0.0090    3.9060 c3        1 MOL     -0.351697
    176 H77         6.8200    0.3530    3.7130 h1        1 MOL      0.110309
    177 H78         5.4580    0.3900    4.8570 h1        1 MOL      0.110309
    178 H79         5.8180   -1.0990    3.9490 h1        1 MOL      0.110309
    179 H80         5.0800    0.0070    1.9270 hn        1 MOL     -0.004452
    180 Ca1        -2.1340   -0.2490   -1.2370 Ca        1 MOL      1.778468
    181 O27        -0.9310   -0.0950   -3.6150 oh        1 MOL     -0.855681
    182 H81        -0.7000   -0.8000   -4.2320 ho        1 MOL      0.412907
    183 H82        -1.3390    0.5750   -4.1600 ho        1 MOL      0.412907
@<TRIPOS>BOND
     1    1    2 1   
     2    1    4 1   
     3    1    5 1   
     4    1    6 1   
     5    2    3 2   
     6    2    7 1   
     7    7    8 1   
     8    7   15 1   
     9    8    9 1   
    10    8   11 1   
    11    8   16 1   
    12    9   10 2   
    13    9   19 1   
    14   11   12 1   
    15   11   17 1   
    16   11   18 1   
    17   12   13 1   
    18   12   14 1   
    19   19   20 1   
    20   19   27 1   
    21   20   21 1   
    22   20   23 1   
    23   20   28 1   
    24   21   22 2   
    25   21   38 1   
    26   23   24 1   
    27   23   25 1   
    28   23   29 1   
    29   24   26 1   
    30   24   30 1   
    31   24   31 1   
    32   25   32 1   
    33   25   33 1   
    34   25   34 1   
    35   26   35 1   
    36   26   36 1   
    37   26   37 1   
    38   38   39 1   
    39   38   46 1   
    40   39   40 1   
    41   39   42 1   
    42   39   47 1   
    43   40   41 2   
    44   40   50 1   
    45   42   43 1   
    46   42   48 1   
    47   42   49 1   
    48   43   44 1   
    49   43   45 1   
    50   50   51 1   
    51   50   54 1   
    52   51   52 1   
    53   51   55 1   
    54   51   56 1   
    55   52   53 2   
    56   52   57 1   
    57   57   58 1   
    58   57   65 1   
    59   58   59 1   
    60   58   61 1   
    61   58   66 1   
    62   59   60 2   
    63   59   69 1   
    64   61   62 1   
    65   61   67 1   
    66   61   68 1   
    67   62   63 1   
    68   62   64 1   
    69   69   70 1   
    70   69   73 1   
    71   70   71 1   
    72   70   74 1   
    73   70   75 1   
    74   71   72 2   
    75   71   76 1   
    76   76   77 1   
    77   76   85 1   
    78   77   78 1   
    79   77   80 1   
    80   77   86 1   
    81   78   79 2   
    82   78   93 1   
    83   80   81 1   
    84   80   87 1   
    85   80   88 1   
    86   81   82 1   
    87   81   89 1   
    88   81   90 1   
    89   82   83 1   
    90   82   84 2   
    91   83   91 1   
    92   83   92 1   
    93   93   94 1   
    94   93  100 1   
    95   94   95 1   
    96   94   97 1   
    97   94  101 1   
    98   95   96 2   
    99   95  109 1   
   100   97   98 1   
   101   97   99 1   
   102   97  102 1   
   103   98  103 1   
   104   98  104 1   
   105   98  105 1   
   106   99  106 1   
   107   99  107 1   
   108   99  108 1   
   109  109  110 1   
   110  109  117 1   
   111  110  111 1   
   112  110  113 1   
   113  110  118 1   
   114  111  112 2   
   115  111  123 1   
   116  113  114 1   
   117  113  119 1   
   118  113  120 1   
   119  114  115 1   
   120  114  116 2   
   121  115  121 1   
   122  115  122 1   
   123  123  124 1   
   124  123  135 1   
   125  124  125 1   
   126  124  127 1   
   127  124  136 1   
   128  125  126 2   
   129  125  144 1   
   130  127  128 1   
   131  127  137 1   
   132  127  138 1   
   133  128  129 ar  
   134  128  130 ar  
   135  129  131 ar  
   136  129  139 1   
   137  130  132 ar  
   138  130  140 1   
   139  131  133 ar  
   140  131  141 1   
   141  132  133 ar  
   142  132  142 1   
   143  133  134 1   
   144  134  143 1   
   145  144  145 1   
   146  144  153 1   
   147  145  146 1   
   148  145  148 1   
   149  145  154 1   
   150  146  147 2   
   151  146  159 1   
   152  148  149 1   
   153  148  155 1   
   154  148  156 1   
   155  149  150 1   
   156  149  157 1   
   157  149  158 1   
   158  150  151 1   
   159  150  152 1   
   160  159  160 1   
   161  159  168 1   
   162  160  161 1   
   163  160  163 1   
   164  160  169 1   
   165  161  162 2   
   166  161  174 1   
   167  163  164 1   
   168  163  170 1   
   169  163  171 1   
   170  164  165 1   
   171  164  172 1   
   172  164  173 1   
   173  165  166 1   
   174  165  167 1   
   175  174  175 1   
   176  174  179 1   
   177  175  176 1   
   178  175  177 1   
   179  175  178 1   
   180  181  182 1   
   181  181  183 1   
@<TRIPOS>SUBSTRUCTURE
     1 MOL         1 TEMP              0 ****  ****    0 ROOT
