@<TRIPOS>MOLECULE
MOL
  172   171     1     0     0
SMALL
resp


@<TRIPOS>ATOM
      1 C1          0.4260   -4.2320    5.3510 c3        1 MOL     -0.364469
      2 C2          0.7820   -3.4990    4.0760 c         1 MOL      0.784246
      3 O1         -0.0910   -3.5170    3.2180 o         1 MOL     -0.580055
      4 H1          0.8180   -3.6840    6.2070 hc        1 MOL      0.088534
      5 H2         -0.6580   -4.3100    5.4360 hc        1 MOL      0.088534
      6 H3          0.8610   -5.2310    5.3300 hc        1 MOL      0.088534
      7 N1          2.0460   -3.0070    3.8280 n         1 MOL     -0.759725
      8 C3          2.4200   -2.6030    2.5070 c3        1 MOL      0.344401
      9 C4          2.7630   -3.7950    1.6120 c         1 MOL      0.420777
     10 O2          3.6980   -4.5520    1.9170 o         1 MOL     -0.590349
     11 C5          3.5550   -1.5530    2.5490 c3        1 MOL     -0.179791
     12 C6          3.6120   -0.7720    1.2220 c         1 MOL      0.534364
     13 O3          3.8170    0.4600    1.2690 o         1 MOL     -0.629784
     14 O4          3.4020   -1.3630    0.1260 o         1 MOL     -0.629784
     15 H4          2.7780   -3.0820    4.5310 hn        1 MOL      0.334979
     16 H5          1.5500   -2.1020    2.0750 h1        1 MOL      0.042624
     17 H6          4.4590   -2.0360    2.9130 hc        1 MOL      0.046701
     18 H7          3.2940   -0.7820    3.2850 hc        1 MOL      0.046701
     19 N2          2.0760   -3.9780    0.5170 n         1 MOL     -0.276999
     20 C7          2.2070   -5.0970   -0.3670 c3        1 MOL      0.165316
     21 C8          3.2350   -4.8630   -1.4410 c         1 MOL      0.513479
     22 O5          3.4660   -5.7700   -2.2520 o         1 MOL     -0.592316
     23 C9          0.8080   -5.5170   -0.9080 c3        1 MOL     -0.191646
     24 H8          1.2930   -3.3510    0.4190 hn        1 MOL      0.248376
     25 H9          2.6140   -5.9380    0.1950 h1        1 MOL      0.015167
     26 H10         0.0620   -5.5220   -0.1130 hc        1 MOL      0.047880
     27 H11         0.4010   -4.7280   -1.5290 hc        1 MOL      0.047880
     28 H12         0.9010   -6.4510   -1.4540 hc        1 MOL      0.047880
     29 N3          3.9590   -3.7770   -1.4350 n         1 MOL     -0.246670
     30 C10         5.0760   -3.4070   -2.2960 c3        1 MOL     -0.154571
     31 C11         6.3660   -3.1460   -1.4680 c         1 MOL      0.518343
     32 O6          7.4220   -2.7980   -2.0090 o         1 MOL     -0.567038
     33 C12         4.7200   -2.1580   -3.1630 c3        1 MOL      0.228560
     34 C13         3.2530   -1.9200   -3.5860 c         1 MOL      0.509970
     35 O7          2.7550   -2.8910   -4.2380 o         1 MOL     -0.652638
     36 O8          2.6920   -0.8930   -3.1790 o         1 MOL     -0.652638
     37 H13         3.6730   -3.0720   -0.7700 hn        1 MOL      0.208034
     38 H14         5.3060   -4.2990   -2.8870 h1        1 MOL      0.113067
     39 H15         5.3450   -2.2120   -4.0410 hc        1 MOL     -0.057021
     40 H16         5.0880   -1.2990   -2.5950 hc        1 MOL     -0.057021
     41 N4          6.2340   -3.0480   -0.1230 n         1 MOL     -0.354135
     42 C14         7.1890   -2.3000    0.6950 c3        1 MOL      0.025952
     43 C15         7.4900   -0.7930    0.3620 c         1 MOL      0.403256
     44 O9          8.3430   -0.2300    1.0660 o         1 MOL     -0.573444
     45 H17         5.2850   -3.0970    0.2100 hn        1 MOL      0.124256
     46 H18         8.1450   -2.7930    0.8600 h1        1 MOL      0.066776
     47 H19         6.7580   -2.2090    1.6890 h1        1 MOL      0.066776
     48 N5          6.7740   -0.1790   -0.5990 n         1 MOL     -0.045241
     49 C16         7.2460    1.1170   -1.1550 c3        1 MOL     -0.175868
     50 C17         6.9720    2.3340   -0.2110 c         1 MOL      0.428943
     51 O10         7.3960    3.4660   -0.4430 o         1 MOL     -0.540881
     52 C18         6.5640    1.3630   -2.5440 c3        1 MOL     -0.170934
     53 C19         5.0890    1.8260   -2.4530 c         1 MOL      0.445990
     54 N6          4.7790    2.9110   -3.1450 n         1 MOL     -0.605496
     55 O11         4.2690    1.2800   -1.7040 o         1 MOL     -0.498372
     56 H20         5.9700   -0.6630   -0.9780 hn        1 MOL      0.167888
     57 H21         8.3320    1.0300   -1.2640 h1        1 MOL      0.134677
     58 H22         6.7130    0.5350   -3.2360 hc        1 MOL      0.083693
     59 H23         7.0790    2.1840   -3.0380 hc        1 MOL      0.083693
     60 H24         5.4620    3.3200   -3.7700 hn        1 MOL      0.322593
     61 H25         3.8300    3.2730   -3.1280 hn        1 MOL      0.322593
     62 N7          6.1420    2.1690    0.8480 n         1 MOL     -0.018037
     63 C20         6.0680    3.2490    1.8460 c3        1 MOL     -0.227749
     64 C21         4.9140    4.2370    1.7100 c         1 MOL      0.684347
     65 O12         4.9240    5.3420    2.2030 o         1 MOL     -0.615266
     66 H26         5.9190    1.2000    0.9950 hn        1 MOL      0.168907
     67 H27         6.9530    3.8780    1.8630 h1        1 MOL      0.087624
     68 H28         5.9190    2.8440    2.8510 h1        1 MOL      0.087624
     69 N8          3.7780    3.8230    1.1090 n         1 MOL     -0.360203
     70 C22         2.3950    4.4620    1.0980 c3        1 MOL     -0.030067
     71 C23         1.2820    3.4020    1.0780 c         1 MOL      0.654233
     72 O13         1.2920    2.5540    0.2260 o         1 MOL     -0.527603
     73 C24         2.2080    5.5450   -0.0200 c3        1 MOL      0.327944
     74 C25         2.7380    6.8720    0.4400 c3        1 MOL     -0.461071
     75 O14         2.7090    5.1790   -1.3310 oh        1 MOL     -0.640584
     76 H29         3.7960    2.8500    0.8440 hn        1 MOL      0.163135
     77 H30         2.2720    4.9850    2.0490 h1        1 MOL      0.064493
     78 H31         1.1280    5.7070    0.0150 h1        1 MOL      0.024947
     79 H32         3.0660    5.9280   -1.8180 ho        1 MOL      0.425539
     80 H33         3.8190    6.7500    0.4830 hc        1 MOL      0.120455
     81 H34         2.5160    7.6240   -0.3190 hc        1 MOL      0.120455
     82 H35         2.2650    7.1620    1.3700 hc        1 MOL      0.120455
     83 N9          0.3370    3.5440    2.0160 n         1 MOL     -0.655995
     84 C26        -0.8040    2.6240    1.9870 c3        1 MOL      0.348593
     85 C27        -1.7220    3.0530    0.8050 c         1 MOL      0.338963
     86 O15        -2.0920    4.1750    0.5790 o         1 MOL     -0.568478
     87 C28        -1.5310    2.6170    3.3870 c3        1 MOL     -0.029863
     88 C29        -1.0340    1.5590    4.4380 c3        1 MOL      0.014108
     89 C30        -3.0300    2.3730    3.4290 c3        1 MOL     -0.176119
     90 C31         0.4840    1.7330    4.7210 c3        1 MOL     -0.079012
     91 H36         0.3320    4.3110    2.6740 hn        1 MOL      0.313654
     92 H37        -0.5010    1.5940    1.7580 h1        1 MOL      0.022514
     93 H38        -1.4200    3.6510    3.7320 hc        1 MOL      0.048074
     94 H39        -1.1640    0.5010    4.2200 hc        1 MOL      0.025689
     95 H40        -1.4200    1.8460    5.4180 hc        1 MOL      0.025689
     96 H41        -3.3500    1.3470    3.2530 hc        1 MOL      0.023617
     97 H42        -3.4200    2.8250    4.3370 hc        1 MOL      0.023617
     98 H43        -3.4420    2.8930    2.5580 hc        1 MOL      0.023617
     99 H44         0.5640    1.2030    5.6700 hc        1 MOL      0.000381
    100 H45         1.1610    1.3860    3.9270 hc        1 MOL      0.000381
    101 H46         0.6960    2.7670    4.9890 hc        1 MOL      0.000381
    102 N10        -2.0370    2.1210   -0.0780 n         1 MOL     -0.110234
    103 C32        -3.0810    2.2080   -1.0700 c3        1 MOL      0.221422
    104 C33        -4.4270    1.6440   -0.6620 c         1 MOL      0.406574
    105 O16        -4.5030    1.1160    0.4210 o         1 MOL     -0.344841
    106 C34        -2.5060    1.4050   -2.2740 c3        1 MOL     -0.498692
    107 C35        -1.1750    1.6940   -2.7760 c         1 MOL      0.861135
    108 O17        -0.8710    2.7790   -3.2980 o         1 MOL     -0.733447
    109 O18        -0.3030    0.8860   -2.5450 o         1 MOL     -0.733447
    110 H47        -1.6040    1.2110    0.0510 hn        1 MOL      0.086616
    111 H48        -3.2530    3.2310   -1.4130 h1        1 MOL      0.047748
    112 H49        -3.2070    1.7530   -3.0340 hc        1 MOL      0.097149
    113 H50        -2.5710    0.3260   -2.1620 hc        1 MOL      0.097149
    114 N11        -5.4090    1.7470   -1.4950 n         1 MOL     -0.612471
    115 C36        -6.7800    1.3840   -1.0810 c3        1 MOL      0.239928
    116 C37        -7.1030   -0.1270   -0.7500 c         1 MOL      0.308664
    117 O19        -7.8390   -0.3380    0.1880 o         1 MOL     -0.462337
    118 C38        -7.7930    1.9240   -2.1040 c3        1 MOL      0.019459
    119 C39        -9.2710    1.6170   -1.7810 ca        1 MOL     -0.009460
    120 C40        -9.9150    2.2970   -0.6550 ca        1 MOL     -0.171115
    121 C41        -9.9790    0.5670   -2.3700 ca        1 MOL     -0.171115
    122 C42       -11.1640    1.9510   -0.1510 ca        1 MOL     -0.038671
    123 C43       -11.2270    0.2080   -1.8450 ca        1 MOL     -0.038671
    124 C44       -11.8840    0.9170   -0.7880 ca        1 MOL     -0.188137
    125 H51        -5.2770    2.1180   -2.4290 hn        1 MOL      0.333732
    126 H52        -7.0200    1.8770   -0.1360 h1        1 MOL      0.070064
    127 H53        -7.5090    1.6020   -3.1080 hc        1 MOL      0.014251
    128 H54        -7.7380    3.0120   -2.1570 hc        1 MOL      0.014251
    129 H55        -9.2880    3.1240   -0.3670 ha        1 MOL      0.108908
    130 H56        -9.6180   -0.0140   -3.2110 ha        1 MOL      0.108908
    131 H57       -11.5500    2.4480    0.7370 ha        1 MOL      0.094834
    132 H58       -11.7390   -0.6480   -2.2740 ha        1 MOL      0.094834
    133 H59       -12.8530    0.5590   -0.4730 ha        1 MOL      0.121312
    134 N12        -6.4560   -1.1660   -1.3050 n         1 MOL     -0.079277
    135 C45        -6.7140   -2.5660   -0.8830 c3        1 MOL     -0.010726
    136 C46        -5.8310   -2.9560    0.2090 c         1 MOL      0.399281
    137 O20        -6.0970   -3.8540    1.0160 o         1 MOL     -0.492634
    138 C47        -6.4940   -3.3930   -2.2080 c3        1 MOL     -0.174239
    139 C48        -5.3500   -2.6650   -2.8980 c3        1 MOL      0.082442
    140 C49        -5.7600   -1.2140   -2.6520 c3        1 MOL     -0.029940
    141 H60        -7.7310   -2.7310   -0.5420 h1        1 MOL      0.089770
    142 H61        -6.2590   -4.4510   -2.0820 hc        1 MOL      0.063403
    143 H62        -7.4330   -3.3480   -2.7580 hc        1 MOL      0.063403
    144 H63        -4.3540   -2.8330   -2.4710 hc        1 MOL      0.014907
    145 H64        -5.3320   -2.8280   -3.9690 hc        1 MOL      0.014907
    146 H65        -4.8040   -0.6870   -2.6300 h1        1 MOL      0.033250
    147 H66        -6.3510   -0.8840   -3.5040 h1        1 MOL      0.033250
    148 N13        -4.7060   -2.1780    0.3310 n         1 MOL     -0.226553
    149 C50        -3.8940   -2.2970    1.5210 c3        1 MOL     -0.218940
    150 C51        -4.6200   -1.7690    2.7350 c         1 MOL      0.524130
    151 O21        -4.7150   -2.4430    3.7370 o         1 MOL     -0.548546
    152 C52        -2.5600   -1.5100    1.3770 c3        1 MOL     -0.040328
    153 C53        -1.8000   -2.0330    0.1710 c3        1 MOL      0.090886
    154 C54        -0.4040   -1.3700   -0.0320 c         1 MOL      0.521965
    155 O22        -0.0530   -0.2370    0.4140 o         1 MOL     -0.673260
    156 O23         0.4110   -1.8220   -0.8520 o         1 MOL     -0.673260
    157 H67        -4.5590   -1.3580   -0.2440 hn        1 MOL      0.223503
    158 H68        -3.7030   -3.3630    1.6440 h1        1 MOL      0.144891
    159 H69        -1.9830   -1.6790    2.2930 hc        1 MOL      0.036366
    160 H70        -2.6860   -0.4540    1.1930 hc        1 MOL      0.036366
    161 H71        -2.2880   -1.7630   -0.7650 hc        1 MOL      0.015072
    162 H72        -1.8030   -3.1200    0.2120 hc        1 MOL      0.015072
    163 N14        -5.2710   -0.5920    2.5590 n         1 MOL     -0.122949
    164 C55        -6.1330    0.0570    3.5690 c3        1 MOL     -0.169767
    165 H73        -5.5090    0.5220    4.3330 h1        1 MOL      0.069126
    166 H74        -6.7460    0.8190    3.0890 h1        1 MOL      0.069126
    167 H75        -6.7770   -0.6910    4.0320 h1        1 MOL      0.069126
    168 H76        -4.9540   -0.0200    1.7910 hn        1 MOL      0.096574
    169 Ca1         1.8870    0.4170   -1.1650 Ca        1 MOL      1.695005
    170 O24         1.7410    2.9460   -2.7160 oh        1 MOL     -0.863313
    171 H77         1.7640    3.7660   -2.2300 ho        1 MOL      0.401836
    172 H78         0.8120    2.7860   -2.8820 ho        1 MOL      0.401836
@<TRIPOS>BOND
     1    1    2 1   
     2    1    4 1   
     3    1    5 1   
     4    1    6 1   
     5    2    3 2   
     6    2    7 1   
     7    7    8 1   
     8    7   15 1   
     9    8    9 1   
    10    8   11 1   
    11    8   16 1   
    12    9   10 2   
    13    9   19 1   
    14   11   12 1   
    15   11   17 1   
    16   11   18 1   
    17   12   13 1   
    18   12   14 1   
    19   19   20 1   
    20   19   24 1   
    21   20   21 1   
    22   20   23 1   
    23   20   25 1   
    24   21   22 2   
    25   21   29 1   
    26   23   26 1   
    27   23   27 1   
    28   23   28 1   
    29   29   30 1   
    30   29   37 1   
    31   30   31 1   
    32   30   33 1   
    33   30   38 1   
    34   31   32 2   
    35   31   41 1   
    36   33   34 1   
    37   33   39 1   
    38   33   40 1   
    39   34   35 1   
    40   34   36 1   
    41   41   42 1   
    42   41   45 1   
    43   42   43 1   
    44   42   46 1   
    45   42   47 1   
    46   43   44 2   
    47   43   48 1   
    48   48   49 1   
    49   48   56 1   
    50   49   50 1   
    51   49   52 1   
    52   49   57 1   
    53   50   51 2   
    54   50   62 1   
    55   52   53 1   
    56   52   58 1   
    57   52   59 1   
    58   53   54 1   
    59   53   55 2   
    60   54   60 1   
    61   54   61 1   
    62   62   63 1   
    63   62   66 1   
    64   63   64 1   
    65   63   67 1   
    66   63   68 1   
    67   64   65 2   
    68   64   69 1   
    69   69   70 1   
    70   69   76 1   
    71   70   71 1   
    72   70   73 1   
    73   70   77 1   
    74   71   72 2   
    75   71   83 1   
    76   73   74 1   
    77   73   75 1   
    78   73   78 1   
    79   74   80 1   
    80   74   81 1   
    81   74   82 1   
    82   75   79 1   
    83   83   84 1   
    84   83   91 1   
    85   84   85 1   
    86   84   87 1   
    87   84   92 1   
    88   85   86 2   
    89   85  102 1   
    90   87   88 1   
    91   87   89 1   
    92   87   93 1   
    93   88   90 1   
    94   88   94 1   
    95   88   95 1   
    96   89   96 1   
    97   89   97 1   
    98   89   98 1   
    99   90   99 1   
   100   90  100 1   
   101   90  101 1   
   102  102  103 1   
   103  102  110 1   
   104  103  104 1   
   105  103  106 1   
   106  103  111 1   
   107  104  105 2   
   108  104  114 1   
   109  106  107 1   
   110  106  112 1   
   111  106  113 1   
   112  107  108 1   
   113  107  109 1   
   114  114  115 1   
   115  114  125 1   
   116  115  116 1   
   117  115  118 1   
   118  115  126 1   
   119  116  117 2   
   120  116  134 1   
   121  118  119 1   
   122  118  127 1   
   123  118  128 1   
   124  119  120 ar  
   125  119  121 ar  
   126  120  122 ar  
   127  120  129 1   
   128  121  123 ar  
   129  121  130 1   
   130  122  124 ar  
   131  122  131 1   
   132  123  124 ar  
   133  123  132 1   
   134  124  133 1   
   135  134  135 1   
   136  134  140 1   
   137  135  136 1   
   138  135  138 1   
   139  135  141 1   
   140  136  137 2   
   141  136  148 1   
   142  138  139 1   
   143  138  142 1   
   144  138  143 1   
   145  139  140 1   
   146  139  144 1   
   147  139  145 1   
   148  140  146 1   
   149  140  147 1   
   150  148  149 1   
   151  148  157 1   
   152  149  150 1   
   153  149  152 1   
   154  149  158 1   
   155  150  151 2   
   156  150  163 1   
   157  152  153 1   
   158  152  159 1   
   159  152  160 1   
   160  153  154 1   
   161  153  161 1   
   162  153  162 1   
   163  154  155 1   
   164  154  156 1   
   165  163  164 1   
   166  163  168 1   
   167  164  165 1   
   168  164  166 1   
   169  164  167 1   
   170  170  171 1   
   171  170  172 1   
@<TRIPOS>SUBSTRUCTURE
     1 MOL         1 TEMP              0 ****  ****    0 ROOT
