@<TRIPOS>MOLECULE
MOL
  189   185     1     0     0
SMALL
resp


@<TRIPOS>ATOM
      1 C1         -0.3500    2.3900   -5.6940 c3        1 MOL     -0.290559
      2 C2          0.2460    2.2340   -4.2210 c         1 MOL      0.626070
      3 O1         -0.4170    2.4390   -3.2160 o         1 MOL     -0.538688
      4 H1         -0.1460    3.3940   -6.0630 hc        1 MOL      0.080010
      5 H2          0.1170    1.6590   -6.3540 hc        1 MOL      0.080010
      6 H3         -1.4270    2.2240   -5.6710 hc        1 MOL      0.080010
      7 N1          1.5540    1.7830   -4.0890 n         1 MOL     -0.654801
      8 C3          2.1850    1.6680   -2.7460 c3        1 MOL      0.257602
      9 C4          2.5400    3.0540   -2.1760 c         1 MOL      0.545728
     10 O2          3.1160    3.8230   -2.9210 o         1 MOL     -0.611441
     11 C5          3.3620    0.6720   -2.9540 c3        1 MOL     -0.060433
     12 C6          4.0490    0.3530   -1.6460 c         1 MOL      0.681211
     13 O3          3.5480    0.8240   -0.5720 o         1 MOL     -0.678070
     14 O4          5.0850   -0.3210   -1.5720 o         1 MOL     -0.678070
     15 H4          2.0950    1.6280   -4.9270 hn        1 MOL      0.336886
     16 H5          1.4520    1.2970   -2.0230 h1        1 MOL     -0.030261
     17 H6          4.0460    1.1570   -3.6570 hc        1 MOL      0.014336
     18 H7          3.0280   -0.2460   -3.4300 hc        1 MOL      0.014336
     19 N2          2.1930    3.4290   -0.9790 n         1 MOL     -0.242261
     20 C7          2.3400    4.8360   -0.4620 c3        1 MOL      0.095074
     21 C8          3.5090    5.0160    0.5540 c         1 MOL      0.390818
     22 O5          4.3660    5.8790    0.3440 o         1 MOL     -0.517371
     23 C9          1.0850    5.3100    0.1770 c3        1 MOL     -0.156500
     24 C10        -0.1020    5.8500   -0.5460 c3        1 MOL      0.110246
     25 C11         0.0230    7.4050   -0.7290 c3        1 MOL     -0.335272
     26 C12        -1.1920    7.9000   -1.5650 c3        1 MOL     -0.030935
     27 N3         -0.9640    7.4900   -2.9140 n4        1 MOL     -0.311048
     28 H8          1.7240    2.7610   -0.3920 hn        1 MOL      0.102995
     29 H9          2.5580    5.5510   -1.2490 h1        1 MOL      0.017603
     30 H10         1.3520    5.9860    0.9790 hc        1 MOL      0.043511
     31 H11         0.7320    4.4850    0.7960 hc        1 MOL      0.043511
     32 H12        -0.9640    5.5960    0.0670 hc        1 MOL      0.041888
     33 H13        -0.3140    5.2780   -1.4580 hc        1 MOL      0.041888
     34 H14         0.9050    7.7540   -1.2650 hc        1 MOL      0.146582
     35 H15         0.0610    7.9210    0.2360 hc        1 MOL      0.146582
     36 H16        -1.4860    8.9510   -1.4490 hx        1 MOL      0.108750
     37 H17        -2.0930    7.3840   -1.2250 hx        1 MOL      0.108750
     38 H18        -1.7040    7.7010   -3.5740 hn        1 MOL      0.318825
     39 H19        -0.1450    7.9520   -3.2950 hn        1 MOL      0.318825
     40 H20        -0.7380    6.5150   -3.0160 hn        1 MOL      0.318825
     41 N4          3.4400    4.1640    1.6030 n         1 MOL     -0.293345
     42 C13         4.5880    4.0220    2.5720 c3        1 MOL     -0.030386
     43 C14         5.7920    3.2890    1.9360 c         1 MOL      0.441114
     44 O6          6.9340    3.5330    2.2940 o         1 MOL     -0.527385
     45 C15         4.2070    3.3270    3.8880 c3        1 MOL     -0.350765
     46 C16         3.2230    2.1030    3.7860 c         1 MOL      0.817985
     47 O7          3.1030    1.4400    2.6980 o         1 MOL     -0.706301
     48 O8          2.4840    1.8360    4.7580 o         1 MOL     -0.706301
     49 H21         2.6100    3.6060    1.7060 hn        1 MOL      0.257615
     50 H22         4.8160    5.0370    2.8960 h1        1 MOL      0.109777
     51 H23         3.6040    4.0550    4.4460 hc        1 MOL      0.101428
     52 H24         5.1250    3.0100    4.4000 hc        1 MOL      0.101428
     53 N5          5.5870    2.4910    0.8940 n         1 MOL      0.005184
     54 C17         6.7420    1.7800    0.2590 c3        1 MOL     -0.267298
     55 C18         7.3980    0.6490    1.0700 c         1 MOL      0.703537
     56 O9          8.5940    0.7520    1.4170 o         1 MOL     -0.591486
     57 H25         4.6590    2.1680    0.7020 hn        1 MOL      0.072548
     58 H26         7.4930    2.5520    0.0760 h1        1 MOL      0.090914
     59 H27         6.2810    1.3920   -0.6430 h1        1 MOL      0.090914
     60 N6          6.6080   -0.3950    1.2730 n         1 MOL     -0.389482
     61 C19         7.0040   -1.6930    1.9280 c3        1 MOL     -0.127556
     62 C20         6.9270   -2.9000    1.0220 c         1 MOL      0.518852
     63 O10         6.9700   -4.0290    1.4900 o         1 MOL     -0.542196
     64 C21         6.1780   -1.8660    3.2050 c3        1 MOL     -0.053410
     65 C22         4.6610   -1.8640    2.9760 c         1 MOL      0.609188
     66 O11         3.9660   -1.9190    3.9990 o         1 MOL     -0.638978
     67 O12         4.1930   -1.7160    1.8400 o         1 MOL     -0.638978
     68 H28         5.7010   -0.1970    0.8820 hn        1 MOL      0.160575
     69 H29         8.0330   -1.6860    2.2980 h1        1 MOL      0.126892
     70 H30         6.2720   -1.0530    3.9220 hc        1 MOL      0.054833
     71 H31         6.6070   -2.7250    3.7280 hc        1 MOL      0.054833
     72 N7          6.7460   -2.6940   -0.2640 n         1 MOL     -0.314280
     73 C23         6.6220   -3.7270   -1.3590 c3        1 MOL     -0.331525
     74 C24         5.3440   -4.5610   -1.4780 c         1 MOL      0.555741
     75 O13         5.2920   -5.5990   -2.1220 o         1 MOL     -0.556239
     76 H32         6.6450   -1.7470   -0.5920 hn        1 MOL      0.286390
     77 H33         7.3480   -4.5200   -1.2000 h1        1 MOL      0.160053
     78 H34         6.8020   -3.1850   -2.2820 h1        1 MOL      0.160053
     79 N8          4.2770   -4.0540   -0.8710 n         1 MOL     -0.237354
     80 C25         2.9560   -4.5500   -1.0170 c3        1 MOL     -0.276129
     81 C26         1.8220   -3.4800   -1.0320 c         1 MOL      0.807554
     82 O14         2.0750   -2.3280   -0.6090 o         1 MOL     -0.697612
     83 C27         2.6540   -5.5420    0.1330 c3        1 MOL      0.380761
     84 C28         3.1210   -6.9370   -0.0670 c3        1 MOL     -0.475845
     85 O15         3.0130   -5.1370    1.4750 oh        1 MOL     -0.568677
     86 H35         4.4110   -3.2680   -0.2630 hn        1 MOL      0.256680
     87 H36         3.0010   -5.0590   -1.9830 h1        1 MOL      0.133289
     88 H37         1.5730   -5.6360    0.0520 h1        1 MOL      0.015436
     89 H38         3.9540   -5.2360    1.5910 ho        1 MOL      0.402035
     90 H39         4.2050   -6.8410   -0.1140 hc        1 MOL      0.125165
     91 H40         2.8310   -7.4890    0.8390 hc        1 MOL      0.125165
     92 H41         2.9170   -7.3480   -1.0530 hc        1 MOL      0.125165
     93 N9          0.7130   -3.7970   -1.6620 n         1 MOL     -0.583749
     94 C29        -0.4540   -2.9380   -1.8330 c3        1 MOL      0.022840
     95 C30        -1.7070   -3.5660   -1.0990 c         1 MOL      0.427380
     96 O16        -2.1500   -4.7050   -1.2240 o         1 MOL     -0.528901
     97 C31        -0.7810   -2.8140   -3.3300 c3        1 MOL      0.299429
     98 C32         0.4220   -2.8250   -4.3550 c3        1 MOL     -0.186100
     99 C33        -1.5470   -1.4620   -3.3730 c3        1 MOL     -0.299119
    100 C34         0.1020   -2.8680   -5.9020 c3        1 MOL     -0.223959
    101 H42         0.6910   -4.6650   -2.1730 hn        1 MOL      0.284426
    102 H43        -0.1860   -1.9500   -1.4580 h1        1 MOL      0.132885
    103 H44        -1.4340   -3.6430   -3.6090 hc        1 MOL     -0.016537
    104 H45         1.0450   -3.6920   -4.1510 hc        1 MOL      0.077563
    105 H46         0.9580   -1.9030   -4.1030 hc        1 MOL      0.077563
    106 H47        -0.9730   -0.6310   -2.9670 hc        1 MOL      0.042001
    107 H48        -1.8840   -1.2330   -4.3870 hc        1 MOL      0.042001
    108 H49        -2.5310   -1.7060   -2.9690 hc        1 MOL      0.042001
    109 H50        -0.2970   -1.9280   -6.2680 hc        1 MOL      0.067813
    110 H51         1.0420   -3.0330   -6.4330 hc        1 MOL      0.067813
    111 H52        -0.6330   -3.6550   -6.0970 hc        1 MOL      0.067813
    112 N10        -2.3720   -2.5800   -0.4030 n         1 MOL     -0.077705
    113 C35        -3.6470   -2.8940    0.3470 c3        1 MOL     -0.024087
    114 C36        -4.9300   -2.5640   -0.4850 c         1 MOL      0.423111
    115 O17        -4.8660   -1.9610   -1.5640 o         1 MOL     -0.370018
    116 C37        -3.6530   -2.3050    1.7520 c3        1 MOL      0.114232
    117 C38        -2.3230   -2.4630    2.5180 c3        1 MOL     -0.621054
    118 O18        -3.8300   -0.8860    1.6290 oh        1 MOL     -0.521347
    119 H53        -1.9000   -1.6900   -0.4280 hn        1 MOL      0.080072
    120 H54        -3.6620   -3.9680    0.5380 h1        1 MOL      0.084056
    121 H55        -4.4880   -2.7230    2.3090 h1        1 MOL      0.036711
    122 H56        -3.1980   -0.5850    2.2810 ho        1 MOL      0.392918
    123 H57        -2.4790   -2.2910    3.5870 hc        1 MOL      0.192827
    124 H58        -2.0320   -3.5040    2.3990 hc        1 MOL      0.192827
    125 H59        -1.5330   -1.8280    2.1250 hc        1 MOL      0.192827
    126 N11        -6.1200   -2.9260    0.0660 n         1 MOL     -0.420936
    127 C39        -7.4280   -2.5080   -0.4540 c3        1 MOL      0.022106
    128 C40        -7.3870   -0.9480   -0.4360 c         1 MOL      0.191654
    129 O19        -7.9390   -0.3530   -1.3410 o         1 MOL     -0.458448
    130 C41        -8.7240   -2.8550    0.3420 c3        1 MOL      0.223141
    131 C42        -8.8730   -4.3280    0.3680 c3        1 MOL     -0.466531
    132 O20        -8.6350   -2.5510    1.7010 oh        1 MOL     -0.571190
    133 H60        -6.0900   -3.4250    0.9390 hn        1 MOL      0.270629
    134 H61        -7.5240   -2.8630   -1.4780 h1        1 MOL      0.132368
    135 H62        -9.4840   -2.2500   -0.1620 h1        1 MOL      0.063542
    136 H63        -9.4320   -2.1290    2.0300 ho        1 MOL      0.394584
    137 H64        -9.5500   -4.6160    1.1700 hc        1 MOL      0.136910
    138 H65        -9.2230   -4.6900   -0.5970 hc        1 MOL      0.136910
    139 H66        -7.9380   -4.8770    0.4980 hc        1 MOL      0.136910
    140 N12        -6.8570   -0.3540    0.6120 n         1 MOL      0.003761
    141 C43        -7.0550    1.1250    0.7780 c3        1 MOL     -0.005532
    142 C44        -6.1830    1.9000   -0.1870 c         1 MOL      0.342946
    143 O21        -6.6480    2.8010   -0.9150 o         1 MOL     -0.486216
    144 C45        -6.9740    1.5120    2.2620 c3        1 MOL      0.006076
    145 C46        -8.1450    1.0440    3.0930 c3        1 MOL     -0.257648
    146 C47        -7.8160    1.3860    4.6260 c3        1 MOL      0.165278
    147 C48        -8.9930    0.8500    5.4850 c3        1 MOL      0.066199
    148 N13        -9.0090    1.2480    6.9060 n4        1 MOL     -0.245882
    149 H67        -6.6720   -0.9820    1.3800 hn        1 MOL      0.209957
    150 H68        -8.0460    1.4030    0.4270 h1        1 MOL      0.068181
    151 H69        -6.9490    2.5950    2.3820 hc        1 MOL      0.021353
    152 H70        -6.0830    0.9960    2.6170 hc        1 MOL      0.021353
    153 H71        -8.3530   -0.0150    2.9470 hc        1 MOL      0.079971
    154 H72        -9.0130    1.6860    2.9680 hc        1 MOL      0.079971
    155 H73        -7.6610    2.4390    4.8870 hc        1 MOL     -0.015412
    156 H74        -6.9130    0.8540    4.8920 hc        1 MOL     -0.015412
    157 H75        -9.1050   -0.2230    5.3580 hx        1 MOL      0.043407
    158 H76        -9.8900    1.2760    5.0240 hx        1 MOL      0.043407
    159 H77        -8.0880    1.1330    7.3110 hn        1 MOL      0.256412
    160 H78        -9.1770    2.2410    6.9550 hn        1 MOL      0.256412
    161 H79        -9.7380    0.8520    7.4870 hn        1 MOL      0.256412
    162 N14        -4.9210    1.4250   -0.3200 n         1 MOL     -0.196167
    163 C49        -3.9110    1.8750   -1.2230 c3        1 MOL     -0.015058
    164 C50        -4.3280    1.6150   -2.7060 c         1 MOL      0.429464
    165 O22        -3.9960    2.4440   -3.4930 o         1 MOL     -0.541189
    166 C51        -2.5960    1.0830   -1.1470 c3        1 MOL     -0.148524
    167 C52        -1.7650    1.7070   -0.0560 c3        1 MOL      0.038801
    168 C53        -0.4720    0.9050    0.1990 c         1 MOL      0.631809
    169 O23         0.5830    1.6090    0.4080 o         1 MOL     -0.641294
    170 O24        -0.4250   -0.3450    0.2400 o         1 MOL     -0.641294
    171 H80        -4.7640    0.6010    0.2370 hn        1 MOL      0.156700
    172 H81        -3.7960    2.9490   -1.0640 h1        1 MOL      0.080269
    173 H82        -2.0170    1.0280   -2.0660 hc        1 MOL      0.112943
    174 H83        -2.8140    0.0700   -0.8260 hc        1 MOL      0.112943
    175 H84        -2.3530    1.8320    0.8520 hc        1 MOL     -0.043877
    176 H85        -1.5440    2.7230   -0.3990 hc        1 MOL     -0.043877
    177 N15        -5.2030    0.6050   -2.9860 n         1 MOL     -0.093750
    178 C54        -6.0640    0.4640   -4.2270 c3        1 MOL     -0.300984
    179 H86        -5.9920    1.3730   -4.8240 h1        1 MOL      0.114483
    180 H87        -5.7160   -0.3850   -4.8170 h1        1 MOL      0.114483
    181 H88        -7.1010    0.3030   -3.9340 h1        1 MOL      0.114483
    182 H89        -5.2800   -0.1310   -2.2930 hn        1 MOL      0.154736
    183 Ca1         2.0410   -0.4640    1.2680 Ca        1 MOL      1.727715
    184 O25         1.3060   -3.0860    2.2360 oh        1 MOL     -0.914099
    185 H90         1.7200   -3.9100    1.9730 ho        1 MOL      0.411367
    186 H91         1.2850   -3.1150    3.1930 ho        1 MOL      0.411367
    187 O26         0.6240    0.2680    3.5290 oh        1 MOL     -0.914099
    188 H92         1.2470    0.8140    4.0150 ho        1 MOL      0.411367
    189 H93         0.0810   -0.1380    4.2070 ho        1 MOL      0.411367
@<TRIPOS>BOND
     1    1    2 1   
     2    1    4 1   
     3    1    5 1   
     4    1    6 1   
     5    2    3 2   
     6    2    7 1   
     7    7    8 1   
     8    7   15 1   
     9    8    9 1   
    10    8   11 1   
    11    8   16 1   
    12    9   10 2   
    13    9   19 1   
    14   11   12 1   
    15   11   17 1   
    16   11   18 1   
    17   12   13 1   
    18   12   14 1   
    19   19   20 1   
    20   19   28 1   
    21   20   21 1   
    22   20   23 1   
    23   20   29 1   
    24   21   22 2   
    25   21   41 1   
    26   23   24 1   
    27   23   30 1   
    28   23   31 1   
    29   24   25 1   
    30   24   32 1   
    31   24   33 1   
    32   25   26 1   
    33   25   34 1   
    34   25   35 1   
    35   26   27 1   
    36   26   36 1   
    37   26   37 1   
    38   27   38 1   
    39   27   39 1   
    40   27   40 1   
    41   41   42 1   
    42   41   49 1   
    43   42   43 1   
    44   42   45 1   
    45   42   50 1   
    46   43   44 2   
    47   43   53 1   
    48   45   46 1   
    49   45   51 1   
    50   45   52 1   
    51   46   47 1   
    52   46   48 1   
    53   53   54 1   
    54   53   57 1   
    55   54   55 1   
    56   54   58 1   
    57   54   59 1   
    58   55   56 2   
    59   55   60 1   
    60   60   61 1   
    61   60   68 1   
    62   61   62 1   
    63   61   64 1   
    64   61   69 1   
    65   62   63 2   
    66   62   72 1   
    67   64   65 1   
    68   64   70 1   
    69   64   71 1   
    70   65   66 1   
    71   65   67 1   
    72   72   73 1   
    73   72   76 1   
    74   73   74 1   
    75   73   77 1   
    76   73   78 1   
    77   74   75 2   
    78   74   79 1   
    79   79   80 1   
    80   79   86 1   
    81   80   81 1   
    82   80   83 1   
    83   80   87 1   
    84   81   82 2   
    85   81   93 1   
    86   83   84 1   
    87   83   85 1   
    88   83   88 1   
    89   84   90 1   
    90   84   91 1   
    91   84   92 1   
    92   85   89 1   
    93   93   94 1   
    94   93  101 1   
    95   94   95 1   
    96   94   97 1   
    97   94  102 1   
    98   95   96 2   
    99   95  112 1   
   100   97   98 1   
   101   97   99 1   
   102   97  103 1   
   103   98  100 1   
   104   98  104 1   
   105   98  105 1   
   106   99  106 1   
   107   99  107 1   
   108   99  108 1   
   109  100  109 1   
   110  100  110 1   
   111  100  111 1   
   112  112  113 1   
   113  112  119 1   
   114  113  114 1   
   115  113  116 1   
   116  113  120 1   
   117  114  115 2   
   118  114  126 1   
   119  116  117 1   
   120  116  118 1   
   121  116  121 1   
   122  117  123 1   
   123  117  124 1   
   124  117  125 1   
   125  118  122 1   
   126  126  127 1   
   127  126  133 1   
   128  127  128 1   
   129  127  130 1   
   130  127  134 1   
   131  128  129 2   
   132  128  140 1   
   133  130  131 1   
   134  130  132 1   
   135  130  135 1   
   136  131  137 1   
   137  131  138 1   
   138  131  139 1   
   139  132  136 1   
   140  140  141 1   
   141  140  149 1   
   142  141  142 1   
   143  141  144 1   
   144  141  150 1   
   145  142  143 2   
   146  142  162 1   
   147  144  145 1   
   148  144  151 1   
   149  144  152 1   
   150  145  146 1   
   151  145  153 1   
   152  145  154 1   
   153  146  147 1   
   154  146  155 1   
   155  146  156 1   
   156  147  148 1   
   157  147  157 1   
   158  147  158 1   
   159  148  159 1   
   160  148  160 1   
   161  148  161 1   
   162  162  163 1   
   163  162  171 1   
   164  163  164 1   
   165  163  166 1   
   166  163  172 1   
   167  164  165 2   
   168  164  177 1   
   169  166  167 1   
   170  166  173 1   
   171  166  174 1   
   172  167  168 1   
   173  167  175 1   
   174  167  176 1   
   175  168  169 1   
   176  168  170 1   
   177  177  178 1   
   178  177  182 1   
   179  178  179 1   
   180  178  180 1   
   181  178  181 1   
   182  184  185 1   
   183  184  186 1   
   184  187  188 1   
   185  187  189 1   
@<TRIPOS>SUBSTRUCTURE
     1 MOL         1 TEMP              0 ****  ****    0 ROOT
