@<TRIPOS>MOLECULE
MOL
  175   173     1     0     0
SMALL
resp


@<TRIPOS>ATOM
      1 C1          0.2850    4.0150    5.3310 c3        1 MOL     -0.314612
      2 C2         -0.3170    4.0550    3.9370 c         1 MOL      0.762622
      3 O1          0.4310    4.3490    3.0440 o         1 MOL     -0.570136
      4 H1         -0.0040    4.9130    5.8770 hc        1 MOL      0.064575
      5 H2         -0.0800    3.1350    5.8610 hc        1 MOL      0.064575
      6 H3          1.3710    3.9700    5.2570 hc        1 MOL      0.064575
      7 N1         -1.5900    3.7750    3.7830 n         1 MOL     -0.688473
      8 C3         -2.2550    3.4990    2.4770 c3        1 MOL      0.137327
      9 C4         -2.6190    4.7370    1.6930 c         1 MOL      0.637881
     10 O2         -3.1620    5.6820    2.2700 o         1 MOL     -0.569953
     11 C5         -3.4270    2.5690    2.7120 c3        1 MOL     -0.101365
     12 C6         -4.1930    2.4020    1.4320 c         1 MOL      0.543119
     13 O3         -5.3420    2.9280    1.4420 o         1 MOL     -0.600119
     14 O4         -3.5660    1.9330    0.4520 o         1 MOL     -0.600119
     15 H4         -2.0730    3.6920    4.6640 hn        1 MOL      0.327867
     16 H5         -1.6010    2.8370    1.9180 h1        1 MOL      0.094364
     17 H6         -4.1080    3.0290    3.4260 hc        1 MOL     -0.003938
     18 H7         -3.1210    1.6410    3.2030 hc        1 MOL     -0.003938
     19 N2         -2.3870    4.6640    0.3950 n         1 MOL     -0.704143
     20 C7         -3.0780    5.5500   -0.5300 c3        1 MOL      0.532924
     21 C8         -3.8760    4.9000   -1.7350 c         1 MOL      0.345233
     22 O5         -4.3610    5.7140   -2.5100 o         1 MOL     -0.568171
     23 C9         -2.0290    6.5630   -0.9560 c3        1 MOL     -0.336318
     24 H8         -2.0330    3.7840    0.0590 hn        1 MOL      0.370279
     25 H9         -3.7940    6.1320    0.0450 h1        1 MOL     -0.010170
     26 H10        -1.4470    7.0070   -0.1490 hc        1 MOL      0.066360
     27 H11        -1.3970    5.9990   -1.6430 hc        1 MOL      0.066360
     28 H12        -2.5620    7.3880   -1.4250 hc        1 MOL      0.066360
     29 N3         -4.2050    3.5980   -1.7700 n         1 MOL     -0.134651
     30 C10        -5.1210    2.9710   -2.8070 c3        1 MOL      0.079210
     31 C11        -6.2980    2.1890   -2.2480 c         1 MOL      0.386879
     32 O6         -7.1890    1.8430   -3.0940 o         1 MOL     -0.567306
     33 C12        -4.2460    2.0620   -3.7220 c3        1 MOL     -0.188405
     34 C13        -3.2770    1.1400   -2.9470 c         1 MOL      0.638437
     35 O7         -2.0170    1.0110   -3.1430 o         1 MOL     -0.682747
     36 O8         -3.8060    0.5600   -1.9700 o         1 MOL     -0.682747
     37 H13        -4.0200    2.9490   -1.0160 hn        1 MOL     -0.003791
     38 H14        -5.5750    3.7430   -3.4310 h1        1 MOL      0.080202
     39 H15        -3.6310    2.6160   -4.4290 hc        1 MOL      0.046827
     40 H16        -4.9270    1.4260   -4.2990 hc        1 MOL      0.046827
     41 N4         -6.3960    1.8760   -0.9680 n         1 MOL     -0.190503
     42 C14        -7.5380    1.1130   -0.5430 c3        1 MOL     -0.216031
     43 C15        -7.4300   -0.4020   -0.8000 c         1 MOL      0.490778
     44 O9         -8.3790   -1.1670   -0.5770 o         1 MOL     -0.627004
     45 H17        -5.6010    1.9890   -0.3450 hn        1 MOL      0.207118
     46 H18        -8.3710    1.5580   -1.0930 h1        1 MOL      0.119331
     47 H19        -7.6620    1.2170    0.5410 h1        1 MOL      0.119331
     48 N5         -6.3280   -0.9010   -1.3480 n         1 MOL     -0.108463
     49 C16        -6.1780   -2.2670   -1.8850 c3        1 MOL     -0.011397
     50 C17        -6.0500   -3.3170   -0.7900 c         1 MOL      0.454518
     51 O10        -6.0400   -4.4580   -1.0850 o         1 MOL     -0.509625
     52 C18        -5.0790   -2.3770   -2.9450 c3        1 MOL     -0.326066
     53 C19        -3.6710   -2.4160   -2.4130 c         1 MOL      0.608851
     54 N6         -2.7640   -2.7000   -3.3530 n         1 MOL     -0.697187
     55 O11        -3.2850   -2.2990   -1.2920 o         1 MOL     -0.332678
     56 H20        -5.5260   -0.2970   -1.4790 hn        1 MOL      0.154600
     57 H21        -7.0750   -2.5090   -2.4410 h1        1 MOL      0.099099
     58 H22        -5.2190   -1.5270   -3.6100 hc        1 MOL      0.108396
     59 H23        -5.2510   -3.3440   -3.4320 hc        1 MOL      0.108396
     60 H24        -3.0130   -2.7770   -4.3280 hn        1 MOL      0.330577
     61 H25        -1.8210   -2.4770   -3.0720 hn        1 MOL      0.330577
     62 N7         -6.0190   -2.9100    0.5000 n         1 MOL     -0.202677
     63 C20        -5.9160   -3.7870    1.6620 c3        1 MOL     -0.295117
     64 C21        -4.5820   -4.5780    1.8700 c         1 MOL      0.497050
     65 O12        -4.5340   -5.4980    2.7340 o         1 MOL     -0.558872
     66 H26        -6.2370   -1.9330    0.6760 hn        1 MOL      0.244263
     67 H27        -6.7360   -4.4790    1.4510 h1        1 MOL      0.123684
     68 H28        -6.1660   -3.3240    2.6140 h1        1 MOL      0.123684
     69 N8         -3.5020   -4.0980    1.1990 n         1 MOL     -0.021848
     70 C22        -2.1120   -4.5950    1.4110 c3        1 MOL     -0.339481
     71 C23        -1.0850   -3.4690    1.3670 c         1 MOL      0.720827
     72 O13        -1.2360   -2.5450    0.5760 o         1 MOL     -0.565730
     73 C24        -1.6620   -5.5900    0.2960 c3        1 MOL      0.551161
     74 C25        -2.3400   -7.0150    0.3320 c3        1 MOL     -0.421511
     75 O14        -1.8140   -4.9530   -0.9640 oh        1 MOL     -0.600317
     76 H29        -3.5280   -3.2360    0.6770 hn        1 MOL     -0.040309
     77 H30        -1.9520   -5.1110    2.3490 h1        1 MOL      0.086946
     78 H31        -0.5930   -5.7120    0.4880 h1        1 MOL     -0.067973
     79 H32        -1.6500   -4.0200   -0.8290 ho        1 MOL      0.309113
     80 H33        -1.9840   -7.7160   -0.4260 hc        1 MOL      0.107074
     81 H34        -2.2450   -7.5090    1.2940 hc        1 MOL      0.107074
     82 H35        -3.4070   -6.9170    0.1120 hc        1 MOL      0.107074
     83 N9          0.0010   -3.5030    2.1920 n         1 MOL     -0.600256
     84 C26         1.1220   -2.5950    2.1460 c3        1 MOL     -0.082687
     85 C27         1.8430   -2.9560    0.8600 c         1 MOL      0.724503
     86 O15         2.4260   -4.0020    0.6610 o         1 MOL     -0.622454
     87 C28         1.9510   -2.7080    3.4370 c3        1 MOL      0.023452
     88 C29         0.9990   -2.3200    4.6010 c3        1 MOL      0.187200
     89 C30         3.1930   -1.8090    3.4530 c3        1 MOL     -0.091320
     90 C31         1.7900   -2.1610    5.8610 c3        1 MOL     -0.124891
     91 H36        -0.1010   -4.2780    2.8370 hn        1 MOL      0.321385
     92 H37         0.6760   -1.5990    2.0680 h1        1 MOL      0.025504
     93 H38         2.2540   -3.7430    3.5330 hc        1 MOL      0.023338
     94 H39         0.2300   -3.0810    4.7640 hc        1 MOL     -0.038286
     95 H40         0.4560   -1.4000    4.3760 hc        1 MOL     -0.038286
     96 H41         3.9450   -2.2310    4.1180 hc        1 MOL      0.025586
     97 H42         3.7390   -1.7690    2.5110 hc        1 MOL      0.025586
     98 H43         2.9030   -0.8080    3.7740 hc        1 MOL      0.025586
     99 H44         1.1060   -1.8910    6.6710 hc        1 MOL      0.013425
    100 H45         2.2540   -3.0950    6.1780 hc        1 MOL      0.013425
    101 H46         2.5280   -1.3600    5.8030 hc        1 MOL      0.013425
    102 N10         1.9170   -1.9820    0.0110 n         1 MOL     -0.325276
    103 C32         2.7610   -2.0370   -1.1470 c3        1 MOL      0.053655
    104 C33         4.1350   -1.4460   -0.8360 c         1 MOL      0.355298
    105 O16         4.2960   -0.8410    0.1850 o         1 MOL     -0.218345
    106 C34         2.0860   -1.3600   -2.2760 c3        1 MOL     -0.267341
    107 C35         0.6590   -1.6930   -2.5970 c         1 MOL      0.727730
    108 O17        -0.3200   -1.2260   -1.9400 o         1 MOL     -0.660989
    109 O18         0.4180   -2.1850   -3.6600 o         1 MOL     -0.660989
    110 H47         1.5420   -1.0600    0.1920 hn        1 MOL      0.113664
    111 H48         2.9220   -3.0810   -1.4030 h1        1 MOL      0.084135
    112 H49         2.7250   -1.5030   -3.1560 hc        1 MOL      0.077492
    113 H50         1.9860   -0.3010   -2.0650 hc        1 MOL      0.077492
    114 N11         5.0940   -1.5380   -1.7340 n         1 MOL     -0.601651
    115 C36         6.4600   -1.0940   -1.5370 c3        1 MOL      0.313395
    116 C37         6.6460    0.3840   -1.1880 c         1 MOL      0.352417
    117 O19         7.3360    0.6300   -0.2630 o         1 MOL     -0.479375
    118 C38         7.4760   -1.6170   -2.5640 c3        1 MOL     -0.171620
    119 C39         8.9290   -1.6150   -2.1400 ca        1 MOL      0.057371
    120 C40         9.3530   -2.0930   -0.8980 ca        1 MOL     -0.114036
    121 C41         9.8650   -0.9510   -2.9780 ca        1 MOL     -0.114036
    122 C42        10.7130   -2.0270   -0.5170 ca        1 MOL     -0.175829
    123 C43        11.2160   -0.8190   -2.5650 ca        1 MOL     -0.175829
    124 C44        11.6350   -1.3990   -1.3290 ca        1 MOL     -0.031510
    125 H51         4.9550   -2.0030   -2.6240 hn        1 MOL      0.323593
    126 H52         6.7210   -1.6530   -0.6390 h1        1 MOL      0.083092
    127 H53         7.3810   -1.0680   -3.4990 hc        1 MOL      0.048575
    128 H54         7.2540   -2.6500   -2.8510 hc        1 MOL      0.048575
    129 H55         8.6570   -2.5400   -0.2020 ha        1 MOL      0.104233
    130 H56         9.6210   -0.5890   -3.9690 ha        1 MOL      0.104233
    131 H57        11.0160   -2.3820    0.4610 ha        1 MOL      0.126178
    132 H58        11.9230   -0.2710   -3.1700 ha        1 MOL      0.126178
    133 H59        12.7020   -1.4330   -1.1550 ha        1 MOL      0.075881
    134 N12         6.0580    1.3650   -1.8780 n         1 MOL     -0.081181
    135 C45         6.0980    2.7090   -1.5480 c3        1 MOL     -0.104223
    136 C46         5.5980    3.0870   -0.1450 c         1 MOL      0.388468
    137 O20         6.0400    4.0880    0.3750 o         1 MOL     -0.496442
    138 C47         5.2780    3.4340   -2.7200 c3        1 MOL      0.202168
    139 C48         5.3140    2.5160   -3.9480 c3        1 MOL     -0.316529
    140 C49         5.3070    1.2010   -3.1390 c3        1 MOL      0.106429
    141 H60         7.1150    3.0840   -1.6530 h1        1 MOL      0.056152
    142 H61         4.2620    3.5130   -2.3150 hc        1 MOL     -0.013623
    143 H62         5.6000    4.4550   -2.8820 hc        1 MOL     -0.013623
    144 H63         4.3790    2.6330   -4.5110 hc        1 MOL      0.104813
    145 H64         6.2610    2.5900   -4.4740 hc        1 MOL      0.104813
    146 H65         4.3060    0.8680   -2.8770 h1        1 MOL      0.006376
    147 H66         5.7940    0.4190   -3.7200 h1        1 MOL      0.006376
    148 N13         4.6270    2.2690    0.3800 n         1 MOL     -0.170579
    149 C50         3.9830    2.3760    1.6480 c3        1 MOL     -0.083730
    150 C51         4.8170    1.6100    2.7300 c         1 MOL      0.453316
    151 O21         4.9790    2.0980    3.8460 o         1 MOL     -0.557795
    152 C52         2.5540    1.7030    1.5220 c3        1 MOL      0.014128
    153 C53         1.7110    2.2280    0.3740 c3        1 MOL     -0.352373
    154 C54         0.2890    1.5820    0.3820 c         1 MOL      0.502782
    155 O22        -0.6980    2.0860   -0.2070 o         1 MOL     -0.597503
    156 O23         0.2300    0.4760    1.0070 o         1 MOL     -0.597503
    157 H67         4.5240    1.3860   -0.1020 hn        1 MOL      0.173959
    158 H68         3.8740    3.4150    1.9420 h1        1 MOL      0.108909
    159 H69         2.1590    1.7940    2.5360 hc        1 MOL      0.056948
    160 H70         2.6480    0.6320    1.3630 hc        1 MOL      0.056948
    161 H71         2.2020    1.9620   -0.5660 hc        1 MOL      0.134027
    162 H72         1.5090    3.2740    0.5980 hc        1 MOL      0.134027
    163 N14         5.4750    0.5140    2.3250 n         1 MOL     -0.006970
    164 C55         6.3700   -0.1520    3.3120 c3        1 MOL     -0.184653
    165 H73         6.8480   -1.0120    2.8440 h1        1 MOL      0.071871
    166 H74         7.1340    0.5520    3.6430 h1        1 MOL      0.071871
    167 H75         5.7840   -0.4830    4.1690 h1        1 MOL      0.071871
    168 H76         5.3520    0.1390    1.4030 hn        1 MOL     -0.044298
    169 Ca1        -2.0160   -0.1080   -0.3240 Ca        1 MOL      1.661984
    170 O24        -1.6330   -0.2470    2.5520 oh        1 MOL     -0.824677
    171 H77        -0.8480    0.2080    2.2760 ho        1 MOL      0.408278
    172 H78        -1.6910   -0.0850    3.4950 ho        1 MOL      0.408278
    173 O25        -3.9770   -1.0030    1.4140 oh        1 MOL     -0.824677
    174 H79        -4.6780   -1.0130    2.0630 ho        1 MOL      0.408278
    175 H80        -3.1800   -0.9070    1.9350 ho        1 MOL      0.408278
@<TRIPOS>BOND
     1    1    2 1   
     2    1    4 1   
     3    1    5 1   
     4    1    6 1   
     5    2    3 2   
     6    2    7 1   
     7    7    8 1   
     8    7   15 1   
     9    8    9 1   
    10    8   11 1   
    11    8   16 1   
    12    9   10 2   
    13    9   19 1   
    14   11   12 1   
    15   11   17 1   
    16   11   18 1   
    17   12   13 1   
    18   12   14 1   
    19   19   20 1   
    20   19   24 1   
    21   20   21 1   
    22   20   23 1   
    23   20   25 1   
    24   21   22 2   
    25   21   29 1   
    26   23   26 1   
    27   23   27 1   
    28   23   28 1   
    29   29   30 1   
    30   29   37 1   
    31   30   31 1   
    32   30   33 1   
    33   30   38 1   
    34   31   32 2   
    35   31   41 1   
    36   33   34 1   
    37   33   39 1   
    38   33   40 1   
    39   34   35 1   
    40   34   36 1   
    41   41   42 1   
    42   41   45 1   
    43   42   43 1   
    44   42   46 1   
    45   42   47 1   
    46   43   44 2   
    47   43   48 1   
    48   48   49 1   
    49   48   56 1   
    50   49   50 1   
    51   49   52 1   
    52   49   57 1   
    53   50   51 2   
    54   50   62 1   
    55   52   53 1   
    56   52   58 1   
    57   52   59 1   
    58   53   54 1   
    59   53   55 2   
    60   54   60 1   
    61   54   61 1   
    62   62   63 1   
    63   62   66 1   
    64   63   64 1   
    65   63   67 1   
    66   63   68 1   
    67   64   65 2   
    68   64   69 1   
    69   69   70 1   
    70   69   76 1   
    71   70   71 1   
    72   70   73 1   
    73   70   77 1   
    74   71   72 2   
    75   71   83 1   
    76   73   74 1   
    77   73   75 1   
    78   73   78 1   
    79   74   80 1   
    80   74   81 1   
    81   74   82 1   
    82   75   79 1   
    83   83   84 1   
    84   83   91 1   
    85   84   85 1   
    86   84   87 1   
    87   84   92 1   
    88   85   86 2   
    89   85  102 1   
    90   87   88 1   
    91   87   89 1   
    92   87   93 1   
    93   88   90 1   
    94   88   94 1   
    95   88   95 1   
    96   89   96 1   
    97   89   97 1   
    98   89   98 1   
    99   90   99 1   
   100   90  100 1   
   101   90  101 1   
   102  102  103 1   
   103  102  110 1   
   104  103  104 1   
   105  103  106 1   
   106  103  111 1   
   107  104  105 2   
   108  104  114 1   
   109  106  107 1   
   110  106  112 1   
   111  106  113 1   
   112  107  108 1   
   113  107  109 1   
   114  114  115 1   
   115  114  125 1   
   116  115  116 1   
   117  115  118 1   
   118  115  126 1   
   119  116  117 2   
   120  116  134 1   
   121  118  119 1   
   122  118  127 1   
   123  118  128 1   
   124  119  120 ar  
   125  119  121 ar  
   126  120  122 ar  
   127  120  129 1   
   128  121  123 ar  
   129  121  130 1   
   130  122  124 ar  
   131  122  131 1   
   132  123  124 ar  
   133  123  132 1   
   134  124  133 1   
   135  134  135 1   
   136  134  140 1   
   137  135  136 1   
   138  135  138 1   
   139  135  141 1   
   140  136  137 2   
   141  136  148 1   
   142  138  139 1   
   143  138  142 1   
   144  138  143 1   
   145  139  140 1   
   146  139  144 1   
   147  139  145 1   
   148  140  146 1   
   149  140  147 1   
   150  148  149 1   
   151  148  157 1   
   152  149  150 1   
   153  149  152 1   
   154  149  158 1   
   155  150  151 2   
   156  150  163 1   
   157  152  153 1   
   158  152  159 1   
   159  152  160 1   
   160  153  154 1   
   161  153  161 1   
   162  153  162 1   
   163  154  155 1   
   164  154  156 1   
   165  163  164 1   
   166  163  168 1   
   167  164  165 1   
   168  164  166 1   
   169  164  167 1   
   170  170  171 1   
   171  170  172 1   
   172  173  174 1   
   173  173  175 1   
@<TRIPOS>SUBSTRUCTURE
     1 MOL         1 TEMP              0 ****  ****    0 ROOT
