@<TRIPOS>MOLECULE
MOL
  175   173     1     0     0
SMALL
resp


@<TRIPOS>ATOM
      1 C1          0.3760    4.3140    5.4060 c3        1 MOL     -0.475652
      2 C2         -0.1900    4.1030    3.9830 c         1 MOL      0.633866
      3 O1          0.5680    4.0620    2.9560 o         1 MOL     -0.532153
      4 H1          1.0280    3.4790    5.6650 hc        1 MOL      0.132007
      5 H2          0.9470    5.2420    5.4370 hc        1 MOL      0.132007
      6 H3         -0.4450    4.3680    6.1210 hc        1 MOL      0.132007
      7 N1         -1.5380    3.8970    3.7580 n         1 MOL     -0.525033
      8 C3         -2.2020    3.5890    2.4840 c3        1 MOL      0.110844
      9 C4         -2.4400    4.7850    1.5700 c         1 MOL      0.523186
     10 O2         -2.8070    5.8220    2.1580 o         1 MOL     -0.570976
     11 C5         -3.5670    2.9000    2.7980 c3        1 MOL     -0.256433
     12 C6         -4.1720    2.0810    1.6050 c         1 MOL      0.817704
     13 O3         -5.2930    1.5360    1.8010 o         1 MOL     -0.731645
     14 O4         -3.5480    1.9240    0.5590 o         1 MOL     -0.731645
     15 H4         -2.0870    3.8640    4.6020 hn        1 MOL      0.288455
     16 H5         -1.5740    2.8300    2.0100 h1        1 MOL      0.052378
     17 H6         -4.3050    3.6420    3.0960 hc        1 MOL      0.058535
     18 H7         -3.4780    2.2800    3.6920 hc        1 MOL      0.058535
     19 N2         -2.3630    4.5370    0.2610 n         1 MOL     -0.342712
     20 C7         -2.5090    5.4280   -0.8540 c3        1 MOL      0.306878
     21 C8         -3.4400    4.9140   -2.0020 c         1 MOL      0.351970
     22 O5         -3.5040    5.4920   -3.1130 o         1 MOL     -0.537636
     23 C9         -1.0110    5.7370   -1.3190 c3        1 MOL     -0.130783
     24 H8         -1.9390    3.6550    0.0110 hn        1 MOL      0.221984
     25 H9         -2.8990    6.3420   -0.4020 h1        1 MOL     -0.019414
     26 H10        -0.4300    4.9110   -1.7180 hc        1 MOL      0.025885
     27 H11        -1.1110    6.5540   -2.0450 hc        1 MOL      0.025885
     28 H12        -0.4990    6.1530   -0.4500 hc        1 MOL      0.025885
     29 N3         -4.1630    3.8180   -1.7660 n         1 MOL     -0.259563
     30 C10        -5.1020    3.2820   -2.7660 c3        1 MOL      0.221773
     31 C11        -6.2120    2.3870   -2.1320 c         1 MOL      0.325802
     32 O6         -7.2440    2.3310   -2.7780 o         1 MOL     -0.518829
     33 C12        -4.4430    2.3250   -3.8070 c3        1 MOL     -0.329581
     34 C13        -3.4920    1.3330   -3.1620 c         1 MOL      0.740347
     35 O7         -2.2700    1.1930   -3.5060 o         1 MOL     -0.685609
     36 O8         -3.8230    0.6760   -2.1440 o         1 MOL     -0.685609
     37 H13        -4.1800    3.4230   -0.8340 hn        1 MOL      0.085047
     38 H14        -5.6290    4.0720   -3.2990 h1        1 MOL      0.051899
     39 H15        -3.8430    2.9710   -4.4440 hc        1 MOL      0.075799
     40 H16        -5.2310    1.7480   -4.3020 hc        1 MOL      0.075799
     41 N4         -6.1780    1.9700   -0.8300 n         1 MOL     -0.277204
     42 C14        -7.2930    1.1870   -0.3490 c3        1 MOL     -0.170563
     43 C15        -7.3290   -0.2690   -0.7640 c         1 MOL      0.531586
     44 O9         -8.3600   -0.8490   -0.6210 o         1 MOL     -0.618717
     45 H17        -5.3530    2.0340   -0.2480 hn        1 MOL      0.262443
     46 H18        -8.2450    1.6570   -0.5810 h1        1 MOL      0.104149
     47 H19        -7.2570    1.1150    0.7420 h1        1 MOL      0.104149
     48 N5         -6.2380   -0.8350   -1.2740 n         1 MOL     -0.229823
     49 C16        -6.3500   -2.2140   -1.8480 c3        1 MOL      0.042905
     50 C17        -6.2690   -3.2990   -0.7600 c         1 MOL      0.382054
     51 O10        -6.2540   -4.5480   -1.0490 o         1 MOL     -0.533595
     52 C18        -5.2660   -2.3020   -2.9390 c3        1 MOL     -0.217298
     53 C19        -3.8150   -2.3020   -2.5930 c         1 MOL      0.708137
     54 N6         -2.8970   -2.4550   -3.5030 n         1 MOL     -0.653702
     55 O11        -3.4280   -2.1180   -1.4720 o         1 MOL     -0.758375
     56 H20        -5.4190   -0.2890   -1.4920 hn        1 MOL      0.274936
     57 H21        -7.3060   -2.3020   -2.3580 h1        1 MOL      0.099071
     58 H22        -5.4020   -1.4060   -3.5560 hc        1 MOL      0.055171
     59 H23        -5.4860   -3.2130   -3.4900 hc        1 MOL      0.055171
     60 H24        -3.1290   -2.3490   -4.4750 hn        1 MOL      0.330584
     61 H25        -1.9510   -2.5540   -3.1590 hn        1 MOL      0.330584
     62 N7         -6.1880   -2.9280    0.5240 n         1 MOL     -0.169022
     63 C20        -6.0950   -3.7610    1.7060 c3        1 MOL     -0.392410
     64 C21        -4.7320   -4.4090    1.9480 c         1 MOL      0.514825
     65 O12        -4.6550   -5.3180    2.8110 o         1 MOL     -0.583572
     66 H26        -6.3710   -1.9610    0.7470 hn        1 MOL      0.255917
     67 H27        -6.7470   -4.6040    1.4670 h1        1 MOL      0.157495
     68 H28        -6.4660   -3.2310    2.5830 h1        1 MOL      0.157495
     69 N8         -3.7550   -3.9850    1.2340 n         1 MOL     -0.053940
     70 C22        -2.3140   -4.4830    1.2180 c3        1 MOL     -0.489412
     71 C23        -1.3180   -3.3510    1.4130 c         1 MOL      0.604934
     72 O13        -1.5730   -2.2330    1.0320 o         1 MOL     -0.530468
     73 C24        -1.9300   -5.4210    0.1090 c3        1 MOL      0.639999
     74 C25        -2.7210   -6.7770    0.1930 c3        1 MOL     -0.509985
     75 O14        -2.1920   -4.8190   -1.1460 oh        1 MOL     -0.668999
     76 H29        -4.0050   -3.2480    0.5910 hn        1 MOL      0.244558
     77 H30        -2.2060   -4.9840    2.1760 h1        1 MOL      0.122043
     78 H31        -0.8540   -5.6270    0.1580 h1        1 MOL     -0.014369
     79 H32        -2.6290   -3.9710   -1.0570 ho        1 MOL      0.429728
     80 H33        -2.1970   -7.4550   -0.4750 hc        1 MOL      0.120525
     81 H34        -2.6640   -7.1800    1.2030 hc        1 MOL      0.120525
     82 H35        -3.7880   -6.5550    0.0650 hc        1 MOL      0.120525
     83 N9         -0.1560   -3.6420    2.0620 n         1 MOL     -0.341193
     84 C26         0.9890   -2.7740    2.0340 c3        1 MOL     -0.286691
     85 C27         1.8630   -3.0760    0.7860 c         1 MOL      0.569029
     86 O15         2.3050   -4.1740    0.5230 o         1 MOL     -0.603976
     87 C28         1.8480   -2.8710    3.3740 c3        1 MOL      0.244510
     88 C29         0.9600   -2.2570    4.4820 c3        1 MOL      0.147163
     89 C30         3.2570   -2.1780    3.2290 c3        1 MOL     -0.438984
     90 C31         1.7450   -2.2350    5.8220 c3        1 MOL     -0.099387
     91 H36        -0.1090   -4.5720    2.4610 hn        1 MOL      0.255667
     92 H37         0.6140   -1.7570    1.9800 h1        1 MOL      0.164545
     93 H38         1.9720   -3.9060    3.7070 hc        1 MOL     -0.008691
     94 H39         0.0850   -2.9020    4.6020 hc        1 MOL     -0.047782
     95 H40         0.6670   -1.2600    4.1780 hc        1 MOL     -0.047782
     96 H41         3.8010   -2.5590    2.3630 hc        1 MOL      0.102840
     97 H42         3.0830   -1.1070    3.1560 hc        1 MOL      0.102840
     98 H43         3.8150   -2.4140    4.1370 hc        1 MOL      0.102840
     99 H44         1.9330   -3.2980    6.0040 hc        1 MOL      0.007616
    100 H45         2.7320   -1.7730    5.7850 hc        1 MOL      0.007616
    101 H46         1.1250   -1.7640    6.5870 hc        1 MOL      0.007616
    102 N10         2.0040   -2.0410   -0.0360 n         1 MOL     -0.046356
    103 C32         2.7630   -1.9740   -1.2690 c3        1 MOL     -0.003183
    104 C33         4.1100   -1.3050   -0.9900 c         1 MOL      0.377256
    105 O16         4.2810   -0.4010   -0.1330 o         1 MOL     -0.213356
    106 C34         1.9980   -1.2230   -2.2960 c3        1 MOL     -0.224692
    107 C35         0.5420   -1.5710   -2.4790 c         1 MOL      0.682325
    108 O17        -0.2730   -1.1230   -1.6300 o         1 MOL     -0.649843
    109 O18         0.2140   -2.1300   -3.5630 o         1 MOL     -0.649843
    110 H47         1.5110   -1.1920    0.2330 hn        1 MOL     -0.061939
    111 H48         2.9420   -2.9770   -1.6570 h1        1 MOL      0.075200
    112 H49         2.5960   -1.3470   -3.1900 hc        1 MOL      0.075897
    113 H50         2.0110   -0.1970   -1.9290 hc        1 MOL      0.075897
    114 N11         5.1360   -1.6370   -1.8500 n         1 MOL     -0.749398
    115 C36         6.4970   -1.1860   -1.5460 c3        1 MOL      0.501919
    116 C37         6.6650    0.3210   -1.1500 c         1 MOL      0.217004
    117 O19         7.4120    0.5120   -0.2080 o         1 MOL     -0.470459
    118 C38         7.5560   -1.6650   -2.5780 c3        1 MOL     -0.285285
    119 C39         9.0420   -1.7240   -2.1570 ca        1 MOL      0.197931
    120 C40         9.3800   -2.0560   -0.7840 ca        1 MOL     -0.243351
    121 C41        10.0950   -1.5610   -3.1020 ca        1 MOL     -0.243351
    122 C42        10.7020   -2.2920   -0.4310 ca        1 MOL     -0.011685
    123 C43        11.3890   -1.6680   -2.6260 ca        1 MOL     -0.011685
    124 C44        11.7190   -2.0370   -1.3580 ca        1 MOL     -0.209788
    125 H51         5.0060   -2.3390   -2.5550 hn        1 MOL      0.380378
    126 H52         6.7010   -1.7110   -0.6150 h1        1 MOL      0.044286
    127 H53         7.4710   -1.0360   -3.4680 hc        1 MOL      0.071274
    128 H54         7.3410   -2.6550   -2.9700 hc        1 MOL      0.071274
    129 H55         8.6700   -2.2380    0.0080 ha        1 MOL      0.124781
    130 H56         9.9690   -1.3790   -4.1550 ha        1 MOL      0.124781
    131 H57        10.9270   -2.7800    0.5010 ha        1 MOL      0.081989
    132 H58        12.2100   -1.4490   -3.2920 ha        1 MOL      0.081989
    133 H59        12.7540   -2.1830   -1.0880 ha        1 MOL      0.110869
    134 N12         6.1140    1.3160   -1.8090 n         1 MOL     -0.112959
    135 C45         6.2400    2.6950   -1.3380 c3        1 MOL      0.166571
    136 C46         5.7710    2.9650    0.1180 c         1 MOL      0.202693
    137 O20         6.4300    3.6710    0.9440 o         1 MOL     -0.491367
    138 C47         5.5700    3.5620   -2.3570 c3        1 MOL      0.083422
    139 C48         5.5540    2.6910   -3.5950 c3        1 MOL     -0.032923
    140 C49         5.3860    1.3110   -3.0260 c3        1 MOL      0.006641
    141 H60         7.2780    3.0410   -1.3530 h1        1 MOL      0.015479
    142 H61         4.5570    3.6830   -1.9800 hc        1 MOL     -0.011906
    143 H62         6.0840    4.5060   -2.4940 hc        1 MOL     -0.011906
    144 H63         4.7350    2.9570   -4.2650 hc        1 MOL      0.016472
    145 H64         6.4810    2.8090   -4.1650 hc        1 MOL      0.016472
    146 H65         4.3570    1.0030   -2.8830 h1        1 MOL      0.030306
    147 H66         5.8920    0.5800   -3.6580 h1        1 MOL      0.030306
    148 N13         4.6090    2.3890    0.4950 n         1 MOL     -0.045450
    149 C50         3.9100    2.4170    1.7730 c3        1 MOL     -0.065564
    150 C51         4.6530    1.5850    2.8210 c         1 MOL      0.390557
    151 O21         4.7610    1.9670    4.0180 o         1 MOL     -0.590938
    152 C52         2.5440    1.7540    1.6750 c3        1 MOL     -0.105353
    153 C53         1.7950    2.0840    0.2730 c3        1 MOL     -0.097058
    154 C54         0.3820    1.5290    0.3420 c         1 MOL      0.539536
    155 O22         0.2130    0.4050    0.8900 o         1 MOL     -0.607856
    156 O23        -0.4440    2.0350   -0.4170 o         1 MOL     -0.607856
    157 H67         4.1720    1.8580   -0.2390 hn        1 MOL      0.092628
    158 H68         3.7890    3.4420    2.1280 h1        1 MOL      0.097002
    159 H69         1.9800    2.1700    2.5090 hc        1 MOL      0.071896
    160 H70         2.5730    0.6770    1.7630 hc        1 MOL      0.071896
    161 H71         2.2130    1.6020   -0.6060 hc        1 MOL      0.066392
    162 H72         1.6920    3.1700    0.1940 hc        1 MOL      0.066392
    163 N14         5.2930    0.5300    2.4500 n         1 MOL      0.105778
    164 C55         6.2360   -0.2700    3.3570 c3        1 MOL     -0.234538
    165 H73         5.6540   -0.7830    4.1230 h1        1 MOL      0.090976
    166 H74         6.7790   -1.0030    2.7610 h1        1 MOL      0.090976
    167 H75         6.9440    0.4080    3.8340 h1        1 MOL      0.090976
    168 H76         5.1160    0.2200    1.5040 hn        1 MOL     -0.039403
    169 Ca1        -2.0950   -0.0100   -0.2690 Ca        1 MOL      1.692569
    170 O24        -4.0530   -0.9670    1.3160 oh        1 MOL     -0.848335
    171 H77        -4.7900   -0.3560    1.3540 ho        1 MOL      0.404480
    172 H78        -3.6440   -0.8910    2.1830 ho        1 MOL      0.404480
    173 O25        -2.0880    0.1480    2.8440 oh        1 MOL     -0.848335
    174 H79        -1.1370    0.0340    2.7870 ho        1 MOL      0.404480
    175 H80        -2.2260    0.5530    3.6950 ho        1 MOL      0.404480
@<TRIPOS>BOND
     1    1    2 1   
     2    1    4 1   
     3    1    5 1   
     4    1    6 1   
     5    2    3 2   
     6    2    7 1   
     7    7    8 1   
     8    7   15 1   
     9    8    9 1   
    10    8   11 1   
    11    8   16 1   
    12    9   10 2   
    13    9   19 1   
    14   11   12 1   
    15   11   17 1   
    16   11   18 1   
    17   12   13 1   
    18   12   14 1   
    19   19   20 1   
    20   19   24 1   
    21   20   21 1   
    22   20   23 1   
    23   20   25 1   
    24   21   22 2   
    25   21   29 1   
    26   23   26 1   
    27   23   27 1   
    28   23   28 1   
    29   29   30 1   
    30   29   37 1   
    31   30   31 1   
    32   30   33 1   
    33   30   38 1   
    34   31   32 2   
    35   31   41 1   
    36   33   34 1   
    37   33   39 1   
    38   33   40 1   
    39   34   35 1   
    40   34   36 1   
    41   41   42 1   
    42   41   45 1   
    43   42   43 1   
    44   42   46 1   
    45   42   47 1   
    46   43   44 2   
    47   43   48 1   
    48   48   49 1   
    49   48   56 1   
    50   49   50 1   
    51   49   52 1   
    52   49   57 1   
    53   50   51 2   
    54   50   62 1   
    55   52   53 1   
    56   52   58 1   
    57   52   59 1   
    58   53   54 1   
    59   53   55 2   
    60   54   60 1   
    61   54   61 1   
    62   62   63 1   
    63   62   66 1   
    64   63   64 1   
    65   63   67 1   
    66   63   68 1   
    67   64   65 2   
    68   64   69 1   
    69   69   70 1   
    70   69   76 1   
    71   70   71 1   
    72   70   73 1   
    73   70   77 1   
    74   71   72 2   
    75   71   83 1   
    76   73   74 1   
    77   73   75 1   
    78   73   78 1   
    79   74   80 1   
    80   74   81 1   
    81   74   82 1   
    82   75   79 1   
    83   83   84 1   
    84   83   91 1   
    85   84   85 1   
    86   84   87 1   
    87   84   92 1   
    88   85   86 2   
    89   85  102 1   
    90   87   88 1   
    91   87   89 1   
    92   87   93 1   
    93   88   90 1   
    94   88   94 1   
    95   88   95 1   
    96   89   96 1   
    97   89   97 1   
    98   89   98 1   
    99   90   99 1   
   100   90  100 1   
   101   90  101 1   
   102  102  103 1   
   103  102  110 1   
   104  103  104 1   
   105  103  106 1   
   106  103  111 1   
   107  104  105 2   
   108  104  114 1   
   109  106  107 1   
   110  106  112 1   
   111  106  113 1   
   112  107  108 1   
   113  107  109 1   
   114  114  115 1   
   115  114  125 1   
   116  115  116 1   
   117  115  118 1   
   118  115  126 1   
   119  116  117 2   
   120  116  134 1   
   121  118  119 1   
   122  118  127 1   
   123  118  128 1   
   124  119  120 ar  
   125  119  121 ar  
   126  120  122 ar  
   127  120  129 1   
   128  121  123 ar  
   129  121  130 1   
   130  122  124 ar  
   131  122  131 1   
   132  123  124 ar  
   133  123  132 1   
   134  124  133 1   
   135  134  135 1   
   136  134  140 1   
   137  135  136 1   
   138  135  138 1   
   139  135  141 1   
   140  136  137 2   
   141  136  148 1   
   142  138  139 1   
   143  138  142 1   
   144  138  143 1   
   145  139  140 1   
   146  139  144 1   
   147  139  145 1   
   148  140  146 1   
   149  140  147 1   
   150  148  149 1   
   151  148  157 1   
   152  149  150 1   
   153  149  152 1   
   154  149  158 1   
   155  150  151 2   
   156  150  163 1   
   157  152  153 1   
   158  152  159 1   
   159  152  160 1   
   160  153  154 1   
   161  153  161 1   
   162  153  162 1   
   163  154  155 1   
   164  154  156 1   
   165  163  164 1   
   166  163  168 1   
   167  164  165 1   
   168  164  166 1   
   169  164  167 1   
   170  170  171 1   
   171  170  172 1   
   172  173  174 1   
   173  173  175 1   
@<TRIPOS>SUBSTRUCTURE
     1 MOL         1 TEMP              0 ****  ****    0 ROOT
