@<TRIPOS>MOLECULE
MOL
  179   176     1     0     0
SMALL
resp


@<TRIPOS>ATOM
      1 C1          0.0790    4.8070   -4.4630 c3        1 MOL     -0.408742
      2 C2          0.5060    4.1020   -3.1710 c         1 MOL      0.638515
      3 O1         -0.0500    4.3920   -2.1020 o         1 MOL     -0.528879
      4 H1          0.9560    4.9890   -5.0830 hc        1 MOL      0.101769
      5 H2         -0.6240    4.1760   -5.0060 hc        1 MOL      0.101769
      6 H3         -0.3970    5.7570   -4.2190 hc        1 MOL      0.101769
      7 N1          1.6060    3.3100   -3.2510 n         1 MOL     -0.597876
      8 C3          2.2200    2.6300   -2.0860 c3        1 MOL      0.127026
      9 C4          3.2720    3.5090   -1.3890 c         1 MOL      0.549359
     10 O2          4.4640    3.1050   -1.2780 o         1 MOL     -0.436107
     11 C5          2.8080    1.2870   -2.6090 c3        1 MOL     -0.311235
     12 C6          3.4520    0.3920   -1.4710 c         1 MOL      0.753050
     13 O3          3.0190    0.3910   -0.3430 o         1 MOL     -0.666259
     14 O4          4.4090   -0.3650   -1.7910 o         1 MOL     -0.666259
     15 H4          2.0800    3.1370   -4.1250 hn        1 MOL      0.341920
     16 H5          1.4110    2.3930   -1.3870 h1        1 MOL      0.114396
     17 H6          3.6110    1.4370   -3.3230 hc        1 MOL      0.078538
     18 H7          1.9320    0.8240   -3.0600 hc        1 MOL      0.078538
     19 N2          2.9490    4.7670   -0.8500 n         1 MOL     -0.532653
     20 C7          3.9130    5.6650   -0.2800 c3        1 MOL      0.062273
     21 C8          4.7700    5.0590    0.7870 c         1 MOL      0.369690
     22 O5          5.9850    5.3240    0.8470 o         1 MOL     -0.518527
     23 C9          3.1100    6.9040    0.1550 c3        1 MOL     -0.154734
     24 C10         2.3220    7.5460   -1.0170 c3        1 MOL      0.107571
     25 C11         1.8710    8.9610   -0.6950 c3        1 MOL      0.038649
     26 C12         0.8290    9.5160   -1.6230 c3        1 MOL      0.051349
     27 N3          1.2220    9.6200   -2.9930 n4        1 MOL     -0.444640
     28 H8          1.9830    5.0610   -0.9170 hn        1 MOL      0.320227
     29 H9          4.5490    6.0290   -1.0830 h1        1 MOL      0.075178
     30 H10         3.7120    7.7060    0.5720 hc        1 MOL      0.072220
     31 H11         2.3740    6.6690    0.9320 hc        1 MOL      0.072220
     32 H12         1.4710    6.9010   -1.2520 hc        1 MOL     -0.038661
     33 H13         2.9260    7.5670   -1.9230 hc        1 MOL     -0.038661
     34 H14         2.6640    9.6990   -0.6370 hc        1 MOL      0.024204
     35 H15         1.4450    8.9970    0.3090 hc        1 MOL      0.024204
     36 H16         0.4210   10.3990   -1.1250 hx        1 MOL      0.079042
     37 H17        -0.0370    8.8620   -1.5900 hx        1 MOL      0.079042
     38 H18         0.5150   10.1870   -3.4340 hn        1 MOL      0.352177
     39 H19         2.1510    9.9770   -3.1380 hn        1 MOL      0.352177
     40 H20         1.1120    8.7310   -3.4560 hn        1 MOL      0.352177
     41 N4          4.1880    4.3080    1.6870 n         1 MOL     -0.262522
     42 C13         4.8920    3.6280    2.7550 c3        1 MOL      0.038010
     43 C14         5.8660    2.5720    2.2400 c         1 MOL      0.368856
     44 O6          6.8570    2.2820    2.8720 o         1 MOL     -0.537984
     45 C15         3.8090    2.8980    3.6250 c3        1 MOL     -0.333350
     46 C16         3.0220    1.7700    2.9300 c         1 MOL      0.877362
     47 O7          1.8750    2.0290    2.4700 o         1 MOL     -0.774312
     48 O8          3.4390    0.6510    2.7240 o         1 MOL     -0.774312
     49 H21         3.2170    4.0410    1.5820 hn        1 MOL      0.227001
     50 H22         5.3520    4.3470    3.4350 h1        1 MOL      0.105514
     51 H23         3.1830    3.6850    4.0550 hc        1 MOL      0.078148
     52 H24         4.4060    2.4560    4.4170 hc        1 MOL      0.078148
     53 N5          5.6560    2.0000    1.0500 n         1 MOL      0.111907
     54 C17         6.5460    1.1580    0.1860 c3        1 MOL     -0.122363
     55 C18         6.9190   -0.2520    0.7330 c         1 MOL      0.555495
     56 O9          8.1400   -0.4720    1.0040 o         1 MOL     -0.579302
     57 H25         4.8840    2.3300    0.4970 hn        1 MOL      0.039877
     58 H26         7.4790    1.7100    0.1440 h1        1 MOL      0.071403
     59 H27         6.3280    1.1370   -0.8820 h1        1 MOL      0.071403
     60 N6          5.9220   -1.0970    0.6860 n         1 MOL     -0.087740
     61 C19         5.9550   -2.5070    1.1430 c3        1 MOL     -0.067563
     62 C20         5.5410   -3.5280    0.0690 c         1 MOL      0.253209
     63 O10         5.6180   -4.7480    0.2250 o         1 MOL     -0.459542
     64 C21         5.1780   -2.6730    2.4730 c3        1 MOL     -0.181114
     65 C22         3.6520   -2.7730    2.2910 c         1 MOL      0.610527
     66 N7          2.9470   -3.2340    3.2440 n         1 MOL     -0.735525
     67 O11         3.0850   -2.4640    1.2540 o         1 MOL     -0.373994
     68 H28         5.0080   -0.7800    0.3840 hn        1 MOL     -0.165766
     69 H29         7.0210   -2.6650    1.2980 h1        1 MOL      0.125455
     70 H30         5.3880   -1.8280    3.1340 hc        1 MOL      0.095214
     71 H31         5.4960   -3.5720    3.0100 hc        1 MOL      0.095214
     72 H32         3.3010   -3.5440    4.1370 hn        1 MOL      0.333431
     73 H33         2.0010   -3.4680    2.9590 hn        1 MOL      0.333431
     74 N8          5.0400   -3.0760   -1.0670 n         1 MOL     -0.018028
     75 C23         4.6190   -3.7980   -2.2740 c3        1 MOL     -0.306056
     76 C24         3.1940   -4.3040   -2.2960 c         1 MOL      0.641037
     77 O12         2.8410   -5.1280   -3.1950 o         1 MOL     -0.567644
     78 H34         4.9860   -2.0740   -1.1690 hn        1 MOL      0.197476
     79 H35         5.2820   -4.6340   -2.4960 h1        1 MOL      0.128519
     80 H36         4.6920   -3.0790   -3.0790 h1        1 MOL      0.128519
     81 N9          2.3700   -3.8120   -1.3180 n         1 MOL     -0.396500
     82 C25         0.9820   -4.1750   -1.1290 c3        1 MOL     -0.015929
     83 C26         0.0620   -2.9540   -0.8550 c         1 MOL      0.687155
     84 O13         0.5240   -1.9530   -0.3390 o         1 MOL     -0.726438
     85 C27         0.9220   -5.2810   -0.0970 c3        1 MOL      0.159366
     86 C28         1.5640   -6.6160   -0.4070 ca        1 MOL     -0.122182
     87 C29         2.8750   -6.9410    0.1370 ca        1 MOL     -0.129611
     88 C30         0.9510   -7.3940   -1.4030 ca        1 MOL     -0.129611
     89 C31         3.4770   -8.1460   -0.3030 ca        1 MOL     -0.212561
     90 C32         1.6990   -8.4630   -1.8550 ca        1 MOL     -0.212561
     91 C33         2.9580   -8.8660   -1.3790 ca        1 MOL      0.329327
     92 O14         3.6360   -9.9320   -1.8290 oh        1 MOL     -0.448523
     93 H37         2.8710   -3.1830   -0.7130 hn        1 MOL      0.283657
     94 H38         0.6300   -4.6250   -2.0540 h1        1 MOL      0.045303
     95 H39        -0.1300   -5.5330   -0.0550 hc        1 MOL     -0.049649
     96 H40         1.2990   -4.9230    0.8670 hc        1 MOL     -0.049649
     97 H41         3.3030   -6.2550    0.8450 ha        1 MOL      0.138480
     98 H42         0.0110   -7.1990   -1.8980 ha        1 MOL      0.138480
     99 H43         4.4470   -8.5070    0.0000 ha        1 MOL      0.111931
    100 H44         1.2090   -9.1860   -2.4990 ha        1 MOL      0.111931
    101 H45         3.1120  -10.5220   -2.3700 ho        1 MOL      0.341413
    102 N10        -1.1910   -2.9970   -1.3240 n         1 MOL     -0.532363
    103 C34        -2.2560   -2.0320   -1.1650 c3        1 MOL     -0.080011
    104 C35        -3.6370   -2.7420   -0.9840 c         1 MOL      0.519139
    105 O15        -4.0630   -3.5940   -1.7670 o         1 MOL     -0.515788
    106 C36        -2.3320   -1.0010   -2.3730 c3        1 MOL     -0.182051
    107 C37        -1.0530   -0.1980   -2.6200 c3        1 MOL      0.099446
    108 C38        -3.5270   -0.1040   -2.4010 c3        1 MOL      0.168953
    109 C39        -1.0750    0.5520   -3.9080 c3        1 MOL     -0.127340
    110 H46        -1.4110   -3.9000   -1.7150 hn        1 MOL      0.328098
    111 H47        -2.0210   -1.4530   -0.2750 h1        1 MOL      0.167847
    112 H48        -2.4650   -1.6990   -3.1960 hc        1 MOL      0.073516
    113 H49        -0.1270   -0.7680   -2.5960 hc        1 MOL      0.037200
    114 H50        -0.8310    0.5040   -1.8240 hc        1 MOL      0.037200
    115 H51        -3.5190    0.4630   -3.3310 hc        1 MOL     -0.024097
    116 H52        -4.4360   -0.6990   -2.4940 hc        1 MOL     -0.024097
    117 H53        -3.5450    0.5590   -1.5290 hc        1 MOL     -0.024097
    118 H54        -1.7200    1.4130   -3.7520 hc        1 MOL      0.026097
    119 H55        -0.0560    0.8980   -4.0690 hc        1 MOL      0.026097
    120 H56        -1.3890   -0.0650   -4.7520 hc        1 MOL      0.026097
    121 N11        -4.3650   -2.4330    0.0850 n         1 MOL     -0.421734
    122 C40        -5.8120   -2.8510    0.2780 c3        1 MOL      0.133211
    123 C41        -6.7590   -1.7590   -0.4360 c         1 MOL      0.448217
    124 O16        -6.4190   -0.6270   -0.7270 o         1 MOL     -0.335998
    125 C42        -6.1190   -2.9310    1.7620 c3        1 MOL     -0.125194
    126 O17        -6.1410   -1.5990    2.3950 oh        1 MOL     -0.443185
    127 H57        -3.9190   -1.9300    0.8480 hn        1 MOL      0.294588
    128 H58        -5.9980   -3.8080   -0.1900 h1        1 MOL      0.064650
    129 H59        -5.4050   -3.6410    2.1870 h1        1 MOL      0.096733
    130 H60        -7.1160   -3.3190    1.9720 h1        1 MOL      0.096733
    131 H61        -5.4410   -1.6120    3.0400 ho        1 MOL      0.396211
    132 N12        -8.0350   -2.1550   -0.4490 n         1 MOL     -0.518754
    133 C43        -9.1450   -1.3070   -0.8670 c3        1 MOL      0.218773
    134 C44        -9.4260   -0.1680    0.0450 c         1 MOL      0.421691
    135 O18       -10.0470    0.7880   -0.3560 o         1 MOL     -0.492520
    136 C45       -10.3240   -2.2180   -1.0710 c3        1 MOL     -0.230488
    137 H62        -8.1960   -3.0360    0.0230 hn        1 MOL      0.294241
    138 H63        -8.9360   -0.9400   -1.8770 h1        1 MOL      0.080252
    139 H64        -9.9830   -3.0880   -1.6290 hc        1 MOL      0.069769
    140 H65       -10.7050   -2.5320   -0.1030 hc        1 MOL      0.069769
    141 H66       -11.0070   -1.6680   -1.7300 hc        1 MOL      0.069769
    142 N13        -8.9460   -0.3150    1.3160 n         1 MOL     -0.358933
    143 C46        -9.0080    0.8520    2.1970 c3        1 MOL      0.169691
    144 C47        -7.7380    1.9030    1.9710 c         1 MOL      0.342801
    145 O19        -7.9610    3.1240    2.0450 o         1 MOL     -0.493062
    146 C48        -9.0940    0.4590    3.6530 c3        1 MOL     -0.222581
    147 H67        -8.3280   -1.0560    1.6180 hn        1 MOL      0.266948
    148 H68        -9.9140    1.3440    1.8660 h1        1 MOL      0.078424
    149 H69        -9.8950   -0.2730    3.7080 hc        1 MOL      0.054182
    150 H70        -8.1480   -0.0010    3.9240 hc        1 MOL      0.054182
    151 H71        -9.2730    1.4010    4.1780 hc        1 MOL      0.054182
    152 N14        -6.5240    1.3780    1.5950 n         1 MOL     -0.011508
    153 C49        -5.2660    2.1370    1.3220 c3        1 MOL     -0.124692
    154 C50        -5.2990    2.9310    0.0450 c         1 MOL      0.473241
    155 O20        -5.0490    4.1110   -0.0070 o         1 MOL     -0.523633
    156 C51        -4.0220    1.1710    1.3950 c3        1 MOL     -0.094553
    157 C52        -2.7120    1.9540    1.2030 c3        1 MOL     -0.054759
    158 C53        -1.4500    1.1590    1.3380 c         1 MOL      0.822592
    159 O21        -1.3840    0.1050    2.0290 o         1 MOL     -0.824060
    160 O22        -0.4240    1.5510    0.7760 o         1 MOL     -0.824060
    161 H72        -6.5380    0.3870    1.4430 hn        1 MOL     -0.101736
    162 H73        -5.1630    2.8030    2.1820 h1        1 MOL      0.115890
    163 H74        -4.0310    0.2720    0.7810 hc        1 MOL      0.014393
    164 H75        -3.9660    0.7610    2.4090 hc        1 MOL      0.014393
    165 H76        -2.7000    2.8720    1.7960 hc        1 MOL      0.040882
    166 H77        -2.5990    2.3010    0.1820 hc        1 MOL      0.040882
    167 N15        -5.7270    2.1240   -0.9940 n         1 MOL      0.008889
    168 C54        -6.0300    2.6700   -2.2830 c3        1 MOL     -0.318380
    169 H78        -5.1050    2.8100   -2.8440 h1        1 MOL      0.105234
    170 H79        -6.6820    1.9840   -2.8240 h1        1 MOL      0.105234
    171 H80        -6.5310    3.6300   -2.1630 h1        1 MOL      0.105234
    172 H81        -5.9000    1.1460   -0.8010 hn        1 MOL      0.024693
    173 Ca1         1.1500   -0.3040    1.6070 Ca        1 MOL      1.771236
    174 O23        -0.0460   -2.7840    2.7200 oh        1 MOL     -0.816692
    175 H82         0.1450   -3.0530    3.6220 ho        1 MOL      0.396969
    176 H83        -0.8770   -3.2230    2.5150 ho        1 MOL      0.396969
    177 O24         1.3150   -0.6240    4.3780 oh        1 MOL     -0.816692
    178 H84         1.4980   -1.5330    4.5740 ho        1 MOL      0.396969
    179 H85         0.9440   -0.2650    5.1850 ho        1 MOL      0.396969
@<TRIPOS>BOND
     1    1    2 1   
     2    1    4 1   
     3    1    5 1   
     4    1    6 1   
     5    2    3 2   
     6    2    7 1   
     7    7    8 1   
     8    7   15 1   
     9    8    9 1   
    10    8   11 1   
    11    8   16 1   
    12    9   10 2   
    13    9   19 1   
    14   11   12 1   
    15   11   17 1   
    16   11   18 1   
    17   12   13 1   
    18   12   14 1   
    19   19   20 1   
    20   19   28 1   
    21   20   21 1   
    22   20   23 1   
    23   20   29 1   
    24   21   22 2   
    25   21   41 1   
    26   23   24 1   
    27   23   30 1   
    28   23   31 1   
    29   24   25 1   
    30   24   32 1   
    31   24   33 1   
    32   25   26 1   
    33   25   34 1   
    34   25   35 1   
    35   26   27 1   
    36   26   36 1   
    37   26   37 1   
    38   27   38 1   
    39   27   39 1   
    40   27   40 1   
    41   41   42 1   
    42   41   49 1   
    43   42   43 1   
    44   42   45 1   
    45   42   50 1   
    46   43   44 2   
    47   43   53 1   
    48   45   46 1   
    49   45   51 1   
    50   45   52 1   
    51   46   47 1   
    52   46   48 1   
    53   53   54 1   
    54   53   57 1   
    55   54   55 1   
    56   54   58 1   
    57   54   59 1   
    58   55   56 2   
    59   55   60 1   
    60   60   61 1   
    61   60   68 1   
    62   61   62 1   
    63   61   64 1   
    64   61   69 1   
    65   62   63 2   
    66   62   74 1   
    67   64   65 1   
    68   64   70 1   
    69   64   71 1   
    70   65   66 1   
    71   65   67 2   
    72   66   72 1   
    73   66   73 1   
    74   74   75 1   
    75   74   78 1   
    76   75   76 1   
    77   75   79 1   
    78   75   80 1   
    79   76   77 2   
    80   76   81 1   
    81   81   82 1   
    82   81   93 1   
    83   82   83 1   
    84   82   85 1   
    85   82   94 1   
    86   83   84 2   
    87   83  102 1   
    88   85   86 1   
    89   85   95 1   
    90   85   96 1   
    91   86   87 ar  
    92   86   88 ar  
    93   87   89 ar  
    94   87   97 1   
    95   88   90 ar  
    96   88   98 1   
    97   89   91 ar  
    98   89   99 1   
    99   90   91 ar  
   100   90  100 1   
   101   91   92 1   
   102   92  101 1   
   103  102  103 1   
   104  102  110 1   
   105  103  104 1   
   106  103  106 1   
   107  103  111 1   
   108  104  105 2   
   109  104  121 1   
   110  106  107 1   
   111  106  108 1   
   112  106  112 1   
   113  107  109 1   
   114  107  113 1   
   115  107  114 1   
   116  108  115 1   
   117  108  116 1   
   118  108  117 1   
   119  109  118 1   
   120  109  119 1   
   121  109  120 1   
   122  121  122 1   
   123  121  127 1   
   124  122  123 1   
   125  122  125 1   
   126  122  128 1   
   127  123  124 2   
   128  123  132 1   
   129  125  126 1   
   130  125  129 1   
   131  125  130 1   
   132  126  131 1   
   133  132  133 1   
   134  132  137 1   
   135  133  134 1   
   136  133  136 1   
   137  133  138 1   
   138  134  135 2   
   139  134  142 1   
   140  136  139 1   
   141  136  140 1   
   142  136  141 1   
   143  142  143 1   
   144  142  147 1   
   145  143  144 1   
   146  143  146 1   
   147  143  148 1   
   148  144  145 2   
   149  144  152 1   
   150  146  149 1   
   151  146  150 1   
   152  146  151 1   
   153  152  153 1   
   154  152  161 1   
   155  153  154 1   
   156  153  156 1   
   157  153  162 1   
   158  154  155 2   
   159  154  167 1   
   160  156  157 1   
   161  156  163 1   
   162  156  164 1   
   163  157  158 1   
   164  157  165 1   
   165  157  166 1   
   166  158  159 1   
   167  158  160 1   
   168  167  168 1   
   169  167  172 1   
   170  168  169 1   
   171  168  170 1   
   172  168  171 1   
   173  174  175 1   
   174  174  176 1   
   175  177  178 1   
   176  177  179 1   
@<TRIPOS>SUBSTRUCTURE
     1 MOL         1 TEMP              0 ****  ****    0 ROOT
