@<TRIPOS>MOLECULE
MOL
  189   185     1     0     0
SMALL
resp


@<TRIPOS>ATOM
      1 C1          0.1710    2.5940    5.3920 c3        1 MOL     -0.367709
      2 C2         -0.3140    2.3140    3.9620 c         1 MOL      0.725406
      3 O1          0.3610    2.5320    2.9640 o         1 MOL     -0.621214
      4 H1          0.9700    1.8970    5.6470 hc        1 MOL      0.094071
      5 H2          0.5460    3.6150    5.4560 hc        1 MOL      0.094071
      6 H3         -0.6570    2.4650    6.0890 hc        1 MOL      0.094071
      7 N1         -1.5420    1.8130    3.8250 n         1 MOL     -0.534908
      8 C3         -2.1750    1.6160    2.4810 c3        1 MOL      0.253742
      9 C4         -2.7160    2.8200    1.8710 c         1 MOL      0.223729
     10 O2         -3.8020    3.2860    2.1450 o         1 MOL     -0.470248
     11 C5         -3.2380    0.5160    2.5850 c3        1 MOL     -0.079442
     12 C6         -4.0040    0.2010    1.3060 c         1 MOL      0.578411
     13 O3         -5.1260   -0.2800    1.4760 o         1 MOL     -0.558688
     14 O4         -3.5710    0.6470    0.1790 o         1 MOL     -0.558688
     15 H4         -2.1410    1.7210    4.6240 hn        1 MOL      0.303871
     16 H5         -1.3940    1.1610    1.8660 h1        1 MOL      0.010085
     17 H6         -3.9850    0.6400    3.3720 hc        1 MOL      0.014151
     18 H7         -2.7020   -0.3390    3.0060 hc        1 MOL      0.014151
     19 N2         -1.8100    3.5320    1.1110 n         1 MOL     -0.264170
     20 C7         -2.0370    4.7310    0.3890 c3        1 MOL      0.022309
     21 C8         -2.7180    4.6390   -0.9770 c         1 MOL      0.415803
     22 O5         -2.7500    5.6760   -1.6520 o         1 MOL     -0.572098
     23 C9         -0.7090    5.5620    0.3800 c3        1 MOL      0.046439
     24 C10        -0.2300    6.0370    1.7260 c3        1 MOL     -0.231223
     25 C11        -1.3610    6.7550    2.5270 c3        1 MOL     -0.100693
     26 C12        -0.8920    7.3540    3.8530 c3        1 MOL     -0.157313
     27 N3         -0.1690    8.6390    3.6890 n4        1 MOL     -0.145383
     28 H8         -0.9220    3.0470    1.0440 hn        1 MOL      0.369772
     29 H9         -2.7140    5.3330    0.9830 h1        1 MOL      0.031198
     30 H10        -0.7420    6.4240   -0.2790 hc        1 MOL      0.009534
     31 H11         0.0310    4.8770   -0.0420 hc        1 MOL      0.009534
     32 H12         0.6810    6.6190    1.5950 hc        1 MOL      0.085198
     33 H13         0.0130    5.1550    2.3190 hc        1 MOL      0.085198
     34 H14        -2.1960    6.0940    2.7570 hc        1 MOL      0.102829
     35 H15        -1.8640    7.5430    1.9550 hc        1 MOL      0.102829
     36 H16        -0.2400    6.6210    4.3420 hx        1 MOL      0.133563
     37 H17        -1.7560    7.6160    4.4760 hx        1 MOL      0.133563
     38 H18        -0.6980    9.1620    3.0080 hn        1 MOL      0.272070
     39 H19        -0.1030    9.2750    4.4720 hn        1 MOL      0.272070
     40 H20         0.7360    8.5900    3.2300 hn        1 MOL      0.272070
     41 N4         -3.2290    3.5180   -1.3900 n         1 MOL     -0.058748
     42 C13        -4.2910    3.5510   -2.4160 c3        1 MOL      0.029028
     43 C14        -5.5890    2.9090   -1.9650 c         1 MOL      0.386054
     44 O6         -6.4260    3.0250   -2.7650 o         1 MOL     -0.485935
     45 C15        -3.7970    3.2170   -3.8160 c3        1 MOL     -0.206311
     46 C16        -2.6240    2.2210   -3.8280 c         1 MOL      0.811673
     47 O7         -1.6580    2.2300   -4.6180 o         1 MOL     -0.714683
     48 O8         -2.6730    1.3470   -2.9490 o         1 MOL     -0.714683
     49 H21        -3.0800    2.6760   -0.8480 hn        1 MOL     -0.042819
     50 H22        -4.5240    4.6070   -2.5310 h1        1 MOL      0.088562
     51 H23        -3.4500    4.1450   -4.2700 hc        1 MOL      0.052116
     52 H24        -4.5900    2.8670   -4.4730 hc        1 MOL      0.052116
     53 N5         -5.7840    2.1690   -0.8670 n         1 MOL     -0.161753
     54 C17        -7.0490    1.6960   -0.4020 c3        1 MOL     -0.318736
     55 C18        -7.4600    0.3410   -1.0520 c         1 MOL      0.655003
     56 O9         -8.6260    0.1320   -1.3550 o         1 MOL     -0.614291
     57 H25        -5.0020    1.9510   -0.2760 hn        1 MOL      0.212854
     58 H26        -7.8340    2.4310   -0.5440 h1        1 MOL      0.128630
     59 H27        -6.8310    1.4130    0.6340 h1        1 MOL      0.128630
     60 N6         -6.4940   -0.5690   -1.2580 n         1 MOL     -0.237646
     61 C19        -6.8030   -1.9100   -1.9080 c3        1 MOL      0.035212
     62 C20        -6.9100   -2.9810   -0.8630 c         1 MOL      0.292426
     63 O10        -7.0680   -4.1760   -1.0780 o         1 MOL     -0.485799
     64 C21        -5.8310   -2.3140   -3.0550 c3        1 MOL     -0.238479
     65 C22        -4.3940   -2.1280   -2.7060 c         1 MOL      0.789386
     66 O11        -3.5590   -1.8610   -3.6120 o         1 MOL     -0.728782
     67 O12        -3.9840   -2.0260   -1.5030 o         1 MOL     -0.728782
     68 H28        -5.6440   -0.4460   -0.7390 hn        1 MOL      0.015568
     69 H29        -7.7990   -1.7960   -2.3190 h1        1 MOL      0.118289
     70 H30        -6.1720   -1.8810   -4.0000 hc        1 MOL      0.080797
     71 H31        -6.0270   -3.3750   -3.2060 hc        1 MOL      0.080797
     72 N7         -6.7280   -2.5820    0.3890 n         1 MOL     -0.090011
     73 C23        -6.6440   -3.4440    1.5370 c3        1 MOL     -0.268278
     74 C24        -5.3070   -4.1490    1.7140 c         1 MOL      0.690585
     75 O13        -5.2100   -5.0810    2.4930 o         1 MOL     -0.619882
     76 H32        -6.8310   -1.5960    0.6170 hn        1 MOL      0.206200
     77 H33        -7.4040   -4.2150    1.4050 h1        1 MOL      0.102059
     78 H34        -6.6790   -2.8690    2.4620 h1        1 MOL      0.102059
     79 N8         -4.3060   -3.7400    0.9540 n         1 MOL     -0.564285
     80 C25        -2.9330   -4.2760    0.9750 c3        1 MOL      0.391445
     81 C26        -1.8680   -3.1970    1.0330 c         1 MOL      0.475857
     82 O14        -1.9650   -2.0520    0.5470 o         1 MOL     -0.718750
     83 C27        -2.5320   -5.3020   -0.1310 c3        1 MOL      0.567072
     84 C28        -2.9150   -6.6940    0.3380 c3        1 MOL     -0.396106
     85 O15        -3.0740   -5.0260   -1.3720 oh        1 MOL     -0.667277
     86 H35        -4.4990   -2.9460    0.3550 hn        1 MOL      0.348471
     87 H36        -2.8010   -4.7640    1.9460 h1        1 MOL     -0.081970
     88 H37        -1.4420   -5.2540   -0.1620 h1        1 MOL     -0.139125
     89 H38        -2.5660   -4.3090   -1.7610 ho        1 MOL      0.400911
     90 H39        -3.8670   -6.6390    0.8630 hc        1 MOL      0.088203
     91 H40        -2.9930   -7.3640   -0.5090 hc        1 MOL      0.088203
     92 H41        -2.1190   -7.0200    0.9990 hc        1 MOL      0.088203
     93 N9         -0.8000   -3.5580    1.7450 n         1 MOL     -0.428965
     94 C29         0.4390   -2.7630    1.8480 c3        1 MOL      0.042205
     95 C30         1.6390   -3.4330    1.0380 c         1 MOL      0.360597
     96 O16         2.0920   -4.5240    1.3830 o         1 MOL     -0.548854
     97 C31         0.8220   -2.5020    3.3800 c3        1 MOL      0.246556
     98 C32        -0.3090   -2.0360    4.2480 c3        1 MOL      0.134710
     99 C33         2.0360   -1.5770    3.5050 c3        1 MOL     -0.493622
    100 C34         0.0850   -2.2340    5.7220 c3        1 MOL     -0.249760
    101 H42        -0.8170   -4.5160    2.0830 hn        1 MOL      0.257231
    102 H43         0.2340   -1.7920    1.4080 h1        1 MOL      0.137214
    103 H44         1.0620   -3.5040    3.7380 hc        1 MOL     -0.033526
    104 H45        -1.2140   -2.6160    4.0700 hc        1 MOL     -0.028112
    105 H46        -0.5710   -0.9980    4.0250 hc        1 MOL     -0.028112
    106 H47         1.7310   -0.5860    3.1800 hc        1 MOL      0.099161
    107 H48         2.4600   -1.5350    4.5120 hc        1 MOL      0.099161
    108 H49         2.8260   -1.9270    2.8460 hc        1 MOL      0.099161
    109 H50         1.0660   -1.8430    6.0160 hc        1 MOL      0.054975
    110 H51        -0.7020   -1.8620    6.3770 hc        1 MOL      0.054975
    111 H52         0.2040   -3.3210    5.7900 hc        1 MOL      0.054975
    112 N10         2.3050   -2.6750    0.1940 n         1 MOL      0.100432
    113 C35         3.5560   -3.1340   -0.5810 c3        1 MOL     -0.126853
    114 C36         4.9020   -2.9800    0.2440 c         1 MOL      0.402666
    115 O17         4.8940   -2.2810    1.2360 o         1 MOL     -0.331477
    116 C37         3.7370   -2.3980   -1.8570 c3        1 MOL      0.145350
    117 C38         2.6520   -2.6250   -2.8880 c3        1 MOL     -0.347995
    118 O18         3.8740   -0.9410   -1.6860 oh        1 MOL     -0.478984
    119 H53         1.9010   -1.7960   -0.0880 hn        1 MOL      0.004537
    120 H54         3.4710   -4.1900   -0.8310 h1        1 MOL      0.084770
    121 H55         4.6620   -2.7950   -2.2690 h1        1 MOL      0.048763
    122 H56         3.1160   -0.6080   -2.1660 ho        1 MOL      0.385604
    123 H57         2.8860   -2.1380   -3.8320 hc        1 MOL      0.102216
    124 H58         2.5770   -3.7080   -2.9580 hc        1 MOL      0.102216
    125 H59         1.7340   -2.1910   -2.5000 hc        1 MOL      0.102216
    126 N11         6.0470   -3.5010   -0.2990 n         1 MOL     -0.353287
    127 C39         7.3850   -3.1240    0.2030 c3        1 MOL     -0.227908
    128 C40         7.6860   -1.6160    0.0790 c         1 MOL      0.529784
    129 O19         8.3580   -1.0780    0.9650 o         1 MOL     -0.495492
    130 C41         8.5300   -3.9620   -0.3980 c3        1 MOL      0.425952
    131 C42         8.4400   -5.4390   -0.3330 c3        1 MOL     -0.163498
    132 O20         8.7310   -3.5710   -1.7270 oh        1 MOL     -0.666002
    133 H60         5.9630   -4.0150   -1.1660 hn        1 MOL      0.305454
    134 H61         7.3270   -3.3380    1.2680 h1        1 MOL      0.140288
    135 H62         9.4560   -3.6860    0.1130 h1        1 MOL     -0.010930
    136 H63         9.6800   -3.5620   -1.9100 ho        1 MOL      0.407021
    137 H64         9.0510   -5.9030   -1.1010 hc        1 MOL      0.043267
    138 H65         8.8100   -5.7980    0.6270 hc        1 MOL      0.043267
    139 H66         7.4320   -5.8240   -0.4900 hc        1 MOL      0.043267
    140 N12         7.1600   -0.8480   -0.9330 n         1 MOL     -0.494278
    141 C43         7.3010    0.6240   -1.0300 c3        1 MOL      0.236746
    142 C44         6.3690    1.3950   -0.0270 c         1 MOL      0.192293
    143 O21         6.8820    2.1620    0.7660 o         1 MOL     -0.459389
    144 C45         7.1550    1.0950   -2.5460 c3        1 MOL     -0.335620
    145 C46         7.1610    2.6320   -2.6700 c3        1 MOL      0.191347
    146 C47         7.2750    2.9910   -4.1570 c3        1 MOL     -0.079265
    147 C48         7.4700    4.4710   -4.2620 c3        1 MOL      0.046656
    148 N13         7.1860    4.9120   -5.5540 n4        1 MOL     -0.276528
    149 H67         6.6400   -1.2790   -1.6920 hn        1 MOL      0.298401
    150 H68         8.2760    0.9350   -0.6720 h1        1 MOL      0.075993
    151 H69         6.3220    0.6270   -3.0730 hc        1 MOL      0.077314
    152 H70         8.1070    0.8350   -3.0210 hc        1 MOL      0.077314
    153 H71         7.8130    3.1720   -1.9790 hc        1 MOL     -0.003226
    154 H72         6.1460    2.8640   -2.3510 hc        1 MOL     -0.003226
    155 H73         6.3120    2.7130   -4.5760 hc        1 MOL      0.046153
    156 H74         8.1330    2.4710   -4.6000 hc        1 MOL      0.046153
    157 H75         8.5340    4.6640   -4.0830 hx        1 MOL      0.067633
    158 H76         6.7590    4.9040   -3.5570 hx        1 MOL      0.067633
    159 H77         7.5180    4.1900   -6.1830 hn        1 MOL      0.295694
    160 H78         6.2060    5.1160   -5.6660 hn        1 MOL      0.295694
    161 H79         7.6890    5.7690   -5.7320 hn        1 MOL      0.295694
    162 N14         5.0810    1.0250    0.1000 n         1 MOL     -0.009089
    163 C49         4.0840    1.6350    0.9690 c3        1 MOL     -0.193999
    164 C50         4.5790    1.4770    2.4290 c         1 MOL      0.394704
    165 O22         4.4890    2.3900    3.2600 o         1 MOL     -0.539947
    166 C51         2.7390    0.9430    0.7860 c3        1 MOL      0.128672
    167 C52         2.0490    1.5240   -0.4000 c3        1 MOL     -0.376783
    168 C53         0.6960    0.8690   -0.6350 c         1 MOL      0.651420
    169 O23        -0.3320    1.5240   -0.7460 o         1 MOL     -0.680031
    170 O24         0.6450   -0.3950   -0.6100 o         1 MOL     -0.680031
    171 H80         4.7400    0.3370   -0.5610 hn        1 MOL      0.085069
    172 H81         4.0240    2.7020    0.7910 h1        1 MOL      0.106683
    173 H82         2.1670    1.1730    1.6790 hc        1 MOL      0.058560
    174 H83         2.7520   -0.1340    0.6390 hc        1 MOL      0.058560
    175 H84         2.6170    1.5070   -1.3280 hc        1 MOL      0.094953
    176 H85         1.8300    2.5550   -0.1000 hc        1 MOL      0.094953
    177 N15         5.0930    0.2430    2.7670 n         1 MOL      0.027661
    178 C54         5.6470   -0.0280    4.1070 c3        1 MOL     -0.330787
    179 H86         6.3510   -0.8590    4.0470 h1        1 MOL      0.112491
    180 H87         6.1640    0.8590    4.4730 h1        1 MOL      0.112491
    181 H88         4.8380   -0.2870    4.7900 h1        1 MOL      0.112491
    182 H89         5.1720   -0.4760    2.0670 hn        1 MOL      0.119377
    183 Ca1        -1.9850   -0.4970   -1.4960 Ca        1 MOL      1.727966
    184 O25        -0.5400   -0.0290   -3.9350 oh        1 MOL     -0.817696
    185 H90        -0.7340    0.8050   -4.3500 ho        1 MOL      0.381243
    186 H91         0.0760   -0.4530   -4.5320 ho        1 MOL      0.381243
    187 O26        -1.3410   -3.0080   -2.7820 oh        1 MOL     -0.817696
    188 H92        -1.9320   -2.8370   -3.5220 ho        1 MOL      0.381243
    189 H93        -0.6440   -3.5440   -3.1570 ho        1 MOL      0.381243
@<TRIPOS>BOND
     1    1    2 1   
     2    1    4 1   
     3    1    5 1   
     4    1    6 1   
     5    2    3 2   
     6    2    7 1   
     7    7    8 1   
     8    7   15 1   
     9    8    9 1   
    10    8   11 1   
    11    8   16 1   
    12    9   10 2   
    13    9   19 1   
    14   11   12 1   
    15   11   17 1   
    16   11   18 1   
    17   12   13 1   
    18   12   14 1   
    19   19   20 1   
    20   19   28 1   
    21   20   21 1   
    22   20   23 1   
    23   20   29 1   
    24   21   22 2   
    25   21   41 1   
    26   23   24 1   
    27   23   30 1   
    28   23   31 1   
    29   24   25 1   
    30   24   32 1   
    31   24   33 1   
    32   25   26 1   
    33   25   34 1   
    34   25   35 1   
    35   26   27 1   
    36   26   36 1   
    37   26   37 1   
    38   27   38 1   
    39   27   39 1   
    40   27   40 1   
    41   41   42 1   
    42   41   49 1   
    43   42   43 1   
    44   42   45 1   
    45   42   50 1   
    46   43   44 2   
    47   43   53 1   
    48   45   46 1   
    49   45   51 1   
    50   45   52 1   
    51   46   47 1   
    52   46   48 1   
    53   53   54 1   
    54   53   57 1   
    55   54   55 1   
    56   54   58 1   
    57   54   59 1   
    58   55   56 2   
    59   55   60 1   
    60   60   61 1   
    61   60   68 1   
    62   61   62 1   
    63   61   64 1   
    64   61   69 1   
    65   62   63 2   
    66   62   72 1   
    67   64   65 1   
    68   64   70 1   
    69   64   71 1   
    70   65   66 1   
    71   65   67 1   
    72   72   73 1   
    73   72   76 1   
    74   73   74 1   
    75   73   77 1   
    76   73   78 1   
    77   74   75 2   
    78   74   79 1   
    79   79   80 1   
    80   79   86 1   
    81   80   81 1   
    82   80   83 1   
    83   80   87 1   
    84   81   82 2   
    85   81   93 1   
    86   83   84 1   
    87   83   85 1   
    88   83   88 1   
    89   84   90 1   
    90   84   91 1   
    91   84   92 1   
    92   85   89 1   
    93   93   94 1   
    94   93  101 1   
    95   94   95 1   
    96   94   97 1   
    97   94  102 1   
    98   95   96 2   
    99   95  112 1   
   100   97   98 1   
   101   97   99 1   
   102   97  103 1   
   103   98  100 1   
   104   98  104 1   
   105   98  105 1   
   106   99  106 1   
   107   99  107 1   
   108   99  108 1   
   109  100  109 1   
   110  100  110 1   
   111  100  111 1   
   112  112  113 1   
   113  112  119 1   
   114  113  114 1   
   115  113  116 1   
   116  113  120 1   
   117  114  115 2   
   118  114  126 1   
   119  116  117 1   
   120  116  118 1   
   121  116  121 1   
   122  117  123 1   
   123  117  124 1   
   124  117  125 1   
   125  118  122 1   
   126  126  127 1   
   127  126  133 1   
   128  127  128 1   
   129  127  130 1   
   130  127  134 1   
   131  128  129 2   
   132  128  140 1   
   133  130  131 1   
   134  130  132 1   
   135  130  135 1   
   136  131  137 1   
   137  131  138 1   
   138  131  139 1   
   139  132  136 1   
   140  140  141 1   
   141  140  149 1   
   142  141  142 1   
   143  141  144 1   
   144  141  150 1   
   145  142  143 2   
   146  142  162 1   
   147  144  145 1   
   148  144  151 1   
   149  144  152 1   
   150  145  146 1   
   151  145  153 1   
   152  145  154 1   
   153  146  147 1   
   154  146  155 1   
   155  146  156 1   
   156  147  148 1   
   157  147  157 1   
   158  147  158 1   
   159  148  159 1   
   160  148  160 1   
   161  148  161 1   
   162  162  163 1   
   163  162  171 1   
   164  163  164 1   
   165  163  166 1   
   166  163  172 1   
   167  164  165 2   
   168  164  177 1   
   169  166  167 1   
   170  166  173 1   
   171  166  174 1   
   172  167  168 1   
   173  167  175 1   
   174  167  176 1   
   175  168  169 1   
   176  168  170 1   
   177  177  178 1   
   178  177  182 1   
   179  178  179 1   
   180  178  180 1   
   181  178  181 1   
   182  184  185 1   
   183  184  186 1   
   184  187  188 1   
   185  187  189 1   
@<TRIPOS>SUBSTRUCTURE
     1 MOL         1 TEMP              0 ****  ****    0 ROOT
