@<TRIPOS>MOLECULE
MOL
  175   173     1     0     0
SMALL
resp


@<TRIPOS>ATOM
      1 C1         -0.5210   -4.1220    5.4120 c3        1 MOL     -0.375762
      2 C2          0.1520   -4.0900    4.0360 c         1 MOL      0.654973
      3 O1         -0.4530   -4.0810    2.9750 o         1 MOL     -0.536092
      4 H1          0.2220   -3.9130    6.1830 hc        1 MOL      0.090431
      5 H2         -1.3070   -3.3670    5.4510 hc        1 MOL      0.090431
      6 H3         -0.9530   -5.1070    5.5830 hc        1 MOL      0.090431
      7 N1          1.4600   -3.9800    4.0230 n         1 MOL     -0.575695
      8 C3          2.1140   -3.6540    2.7690 c3        1 MOL      0.200803
      9 C4          2.2020   -4.8000    1.7760 c         1 MOL      0.566679
     10 O2          2.3150   -5.9270    2.2300 o         1 MOL     -0.596710
     11 C5          3.3970   -2.9790    3.1700 c3        1 MOL     -0.503314
     12 C6          4.1270   -2.2850    2.0430 c         1 MOL      0.874398
     13 O3          5.2950   -1.8620    2.2040 o         1 MOL     -0.724965
     14 O4          3.5670   -2.0710    0.9570 o         1 MOL     -0.724965
     15 H4          1.9310   -4.0720    4.9190 hn        1 MOL      0.320726
     16 H5          1.4590   -2.9230    2.2970 h1        1 MOL      0.119362
     17 H6          4.0580   -3.8050    3.4470 hc        1 MOL      0.103252
     18 H7          3.2010   -2.2430    3.9520 hc        1 MOL      0.103252
     19 N2          2.3250   -4.4880    0.5160 n         1 MOL     -0.543409
     20 C7          2.5740   -5.4960   -0.5100 c3        1 MOL      0.244444
     21 C8          3.5600   -5.0240   -1.6150 c         1 MOL      0.387403
     22 O5          3.7090   -5.7560   -2.5950 o         1 MOL     -0.547820
     23 C9          1.1340   -5.7120   -1.0700 c3        1 MOL     -0.224202
     24 H8          2.3010   -3.4880    0.3510 hn        1 MOL      0.467205
     25 H9          2.8800   -6.4260   -0.0320 h1        1 MOL      0.038132
     26 H10         0.3460   -5.3630   -0.4020 hc        1 MOL      0.059357
     27 H11         1.0390   -5.1550   -1.9980 hc        1 MOL      0.059357
     28 H12         1.0290   -6.7750   -1.2900 hc        1 MOL      0.059357
     29 N3          4.2540   -3.8670   -1.4820 n         1 MOL     -0.235744
     30 C10         5.2550   -3.4970   -2.4400 c3        1 MOL      0.003589
     31 C11         6.4250   -2.5660   -1.9250 c         1 MOL      0.370110
     32 O6          7.3920   -2.3140   -2.6330 o         1 MOL     -0.527742
     33 C12         4.5050   -2.6530   -3.5470 c3        1 MOL     -0.127988
     34 C13         3.6360   -1.5610   -3.0450 c         1 MOL      0.859063
     35 O7          2.8020   -1.1440   -3.8520 o         1 MOL     -0.729796
     36 O8          3.6770   -1.0680   -1.8670 o         1 MOL     -0.729796
     37 H13         4.0740   -3.2260   -0.7240 hn        1 MOL      0.052367
     38 H14         5.7450   -4.3640   -2.8960 h1        1 MOL      0.089980
     39 H15         3.8680   -3.3570   -4.0870 hc        1 MOL      0.025329
     40 H16         5.2480   -2.1930   -4.2120 hc        1 MOL      0.025329
     41 N4          6.3810   -2.0360   -0.7260 n         1 MOL     -0.219266
     42 C14         7.4050   -1.1210   -0.1940 c3        1 MOL     -0.231404
     43 C15         7.3630    0.3040   -0.8240 c         1 MOL      0.521176
     44 O9          8.3940    0.9380   -0.7860 o         1 MOL     -0.605039
     45 H17         5.5260   -2.1230   -0.1840 hn        1 MOL      0.221067
     46 H18         8.3880   -1.5660   -0.2910 h1        1 MOL      0.129459
     47 H19         7.1140   -1.0080    0.8530 h1        1 MOL      0.129459
     48 N5          6.2660    0.8030   -1.4400 n         1 MOL     -0.191358
     49 C16         6.2710    2.1750   -2.0710 c3        1 MOL      0.083432
     50 C17         6.1860    3.3880   -1.0990 c         1 MOL      0.451027
     51 O10         6.3590    4.5160   -1.5120 o         1 MOL     -0.533548
     52 C18         5.1780    2.1770   -3.1500 c3        1 MOL     -0.214838
     53 C19         3.7780    2.1170   -2.6790 c         1 MOL      0.730544
     54 N6          2.8890    2.1510   -3.5860 n         1 MOL     -0.693748
     55 O11         3.4990    1.9150   -1.4640 o         1 MOL     -0.740076
     56 H20         5.4020    0.2910   -1.3310 hn        1 MOL      0.155020
     57 H21         7.1990    2.3160   -2.6400 h1        1 MOL      0.083149
     58 H22         5.3580    1.2770   -3.7520 hc        1 MOL      0.044829
     59 H23         5.3530    3.0910   -3.7140 hc        1 MOL      0.044829
     60 H24         3.1640    1.9870   -4.5480 hn        1 MOL      0.361023
     61 H25         1.9240    2.0400   -3.3130 hn        1 MOL      0.361023
     62 N7          6.0230    3.1330    0.2330 n         1 MOL     -0.282744
     63 C20         6.0060    4.2260    1.2440 c3        1 MOL     -0.152691
     64 C21         4.6250    4.7000    1.6560 c         1 MOL      0.537781
     65 O12         4.5700    5.4170    2.6590 o         1 MOL     -0.585069
     66 H26         5.9680    2.1580    0.5070 hn        1 MOL      0.219892
     67 H27         6.6490    5.0570    0.9810 h1        1 MOL      0.106552
     68 H28         6.5570    3.8180    2.1020 h1        1 MOL      0.106552
     69 N8          3.5620    4.3380    0.9490 n         1 MOL     -0.467813
     70 C22         2.1020    4.6850    1.1670 c3        1 MOL      0.049183
     71 C23         1.1080    3.5340    1.3690 c         1 MOL      0.527840
     72 O13         1.2590    2.4230    0.8110 o         1 MOL     -0.544499
     73 C24         1.6020    5.5330    0.0220 c3        1 MOL      0.593376
     74 C25         2.3430    6.8780   -0.0350 c3        1 MOL     -0.456092
     75 O14         1.5900    4.7980   -1.1910 oh        1 MOL     -0.617990
     76 H29         3.7890    3.7900    0.1200 hn        1 MOL      0.313917
     77 H30         2.0810    5.3550    2.0190 h1        1 MOL      0.040473
     78 H31         0.5870    5.8400    0.2950 h1        1 MOL     -0.092601
     79 H32         1.5510    3.8880   -0.8790 ho        1 MOL      0.349297
     80 H33         2.1150    7.4520   -0.9420 hc        1 MOL      0.110961
     81 H34         2.0990    7.4670    0.8420 hc        1 MOL      0.110961
     82 H35         3.4080    6.7990   -0.2290 hc        1 MOL      0.110961
     83 N9          0.0530    3.8680    2.0730 n         1 MOL     -0.592872
     84 C26        -1.0560    2.9880    2.0970 c3        1 MOL     -0.031720
     85 C27        -1.7790    3.0950    0.7340 c         1 MOL      0.456037
     86 O15        -2.4030    4.0860    0.2860 o         1 MOL     -0.577066
     87 C28        -2.0850    3.2290    3.2720 c3        1 MOL      0.188942
     88 C29        -1.5010    3.7670    4.5920 c3        1 MOL      0.130794
     89 C30        -2.8430    1.8880    3.4430 c3        1 MOL     -0.369718
     90 C31        -2.5750    4.1170    5.6740 c3        1 MOL     -0.221571
     91 H36        -0.0880    4.8290    2.3560 hn        1 MOL      0.339806
     92 H37        -0.6490    1.9890    2.2660 h1        1 MOL      0.163288
     93 H38        -2.8070    4.0020    2.9930 hc        1 MOL     -0.016987
     94 H39        -0.8770    4.6260    4.3750 hc        1 MOL     -0.038451
     95 H40        -0.8400    2.9930    4.9870 hc        1 MOL     -0.038451
     96 H41        -3.1370    1.4800    2.4750 hc        1 MOL      0.079600
     97 H42        -2.1790    1.2120    3.9820 hc        1 MOL      0.079600
     98 H43        -3.7780    1.9370    4.0180 hc        1 MOL      0.079600
     99 H44        -3.1520    3.2400    5.9660 hc        1 MOL      0.050100
    100 H45        -2.0910    4.4030    6.6110 hc        1 MOL      0.050100
    101 H46        -3.2980    4.8730    5.3510 hc        1 MOL      0.050100
    102 N10        -1.7540    1.9970    0.0450 n         1 MOL     -0.095238
    103 C32        -2.5360    1.7370   -1.1920 c3        1 MOL     -0.097060
    104 C33        -3.9630    1.3610   -0.8940 c         1 MOL      0.505686
    105 O16        -4.3230    0.9060    0.2100 o         1 MOL     -0.332837
    106 C34        -1.7590    0.7830   -2.1850 c3        1 MOL     -0.289910
    107 C35        -0.3840    1.3420   -2.4140 c         1 MOL      0.803237
    108 O17        -0.1630    1.9510   -3.4680 o         1 MOL     -0.693162
    109 O18         0.4170    0.9390   -1.6030 o         1 MOL     -0.693162
    110 H47        -1.2220    1.1860    0.3020 hn        1 MOL      0.163605
    111 H48        -2.5590    2.7780   -1.5130 h1        1 MOL      0.095511
    112 H49        -2.3300    0.7540   -3.1120 hc        1 MOL      0.091131
    113 H50        -1.7390   -0.2550   -1.8240 hc        1 MOL      0.091131
    114 N11        -4.9860    1.6850   -1.7420 n         1 MOL     -0.604459
    115 C36        -6.3730    1.3410   -1.4730 c3        1 MOL      0.318563
    116 C37        -6.6140   -0.0800   -1.1060 c         1 MOL      0.363575
    117 O19        -7.2580   -0.3240   -0.0640 o         1 MOL     -0.503459
    118 C38        -7.2940    1.9010   -2.5780 c3        1 MOL     -0.109359
    119 C39        -8.7650    1.6860   -2.3870 ca        1 MOL     -0.021183
    120 C40        -9.3760    0.6440   -3.1160 ca        1 MOL     -0.112697
    121 C41        -9.4850    2.2990   -1.3230 ca        1 MOL     -0.112697
    122 C42       -10.7120    0.2740   -2.7830 ca        1 MOL     -0.138008
    123 C43       -10.7480    1.9870   -1.1080 ca        1 MOL     -0.138008
    124 C44       -11.3730    1.0200   -1.8270 ca        1 MOL     -0.035724
    125 H51        -4.8440    2.0470   -2.6730 hn        1 MOL      0.292369
    126 H52        -6.6660    1.8390   -0.5450 h1        1 MOL      0.037373
    127 H53        -7.0170    1.4450   -3.5300 hc        1 MOL      0.046372
    128 H54        -7.1400    2.9730   -2.6230 hc        1 MOL      0.046372
    129 H55        -8.9650    0.2200   -4.0220 ha        1 MOL      0.113938
    130 H56        -8.9460    3.0570   -0.7690 ha        1 MOL      0.113938
    131 H57       -11.1660   -0.5220   -3.3480 ha        1 MOL      0.110770
    132 H58       -11.2610    2.4410   -0.2730 ha        1 MOL      0.110770
    133 H59       -12.4400    0.9040   -1.7000 ha        1 MOL      0.067511
    134 N12        -6.1660   -1.1460   -1.8190 n         1 MOL     -0.078671
    135 C45        -6.3390   -2.5460   -1.3830 c3        1 MOL      0.063905
    136 C46        -5.7110   -2.9980   -0.0110 c         1 MOL      0.213946
    137 O20        -6.2730   -3.8430    0.7600 o         1 MOL     -0.478934
    138 C47        -5.6630   -3.3260   -2.4980 c3        1 MOL      0.120500
    139 C48        -5.7230   -2.4500   -3.7180 c3        1 MOL     -0.146538
    140 C49        -5.5990   -1.0470   -3.1490 c3        1 MOL     -0.038167
    141 H60        -7.4070   -2.7440   -1.4090 h1        1 MOL      0.034940
    142 H61        -4.6360   -3.5270   -2.1700 hc        1 MOL     -0.009926
    143 H62        -6.1360   -4.3100   -2.5710 hc        1 MOL     -0.009926
    144 H63        -4.8790   -2.6660   -4.3720 hc        1 MOL      0.048637
    145 H64        -6.6850   -2.6290   -4.1940 hc        1 MOL      0.048637
    146 H65        -4.5340   -0.8260   -3.1300 h1        1 MOL      0.033439
    147 H66        -6.1990   -0.3760   -3.7550 h1        1 MOL      0.033439
    148 N13        -4.6010   -2.3320    0.3400 n         1 MOL     -0.028683
    149 C50        -3.9080   -2.3390    1.6470 c3        1 MOL     -0.216847
    150 C51        -4.7840   -1.6190    2.7570 c         1 MOL      0.479191
    151 O21        -4.9210   -2.0860    3.8750 o         1 MOL     -0.551872
    152 C52        -2.5580   -1.6910    1.5040 c3        1 MOL     -0.059787
    153 C53        -1.7400   -2.2120    0.3550 c3        1 MOL     -0.055453
    154 C54        -0.3650   -1.5340    0.3450 c         1 MOL      0.680168
    155 O22         0.6190   -2.1100   -0.2250 o         1 MOL     -0.779255
    156 O23        -0.1340   -0.5300    0.9540 o         1 MOL     -0.779255
    157 H67        -4.3060   -1.6150   -0.3100 hn        1 MOL      0.159613
    158 H68        -3.7860   -3.3660    1.9830 h1        1 MOL      0.142404
    159 H69        -2.0060   -1.6870    2.4380 hc        1 MOL      0.051651
    160 H70        -2.7330   -0.6270    1.3690 hc        1 MOL      0.051651
    161 H71        -2.1900   -1.9700   -0.6130 hc        1 MOL      0.035921
    162 H72        -1.5890   -3.2920    0.4290 hc        1 MOL      0.035921
    163 N14        -5.4790   -0.5040    2.3710 n         1 MOL      0.035143
    164 C55        -6.4310    0.0990    3.3070 c3        1 MOL     -0.266118
    165 H73        -5.9430    0.2550    4.2700 h1        1 MOL      0.089036
    166 H74        -6.7700    1.0580    2.9140 h1        1 MOL      0.089036
    167 H75        -7.2850   -0.5640    3.4360 h1        1 MOL      0.089036
    168 H76        -5.2280   -0.1800    1.4470 hn        1 MOL     -0.003712
    169 Ca1         2.2390   -0.0380    0.0210 Ca        1 MOL      1.711713
    170 O24         1.8800   -0.0440    2.6650 oh        1 MOL     -0.827439
    171 H77         0.9480   -0.1660    2.8530 ho        1 MOL      0.404327
    172 H78         2.2990   -0.0910    3.5210 ho        1 MOL      0.404327
    173 O25         4.5940    0.5350    1.1040 oh        1 MOL     -0.827439
    174 H79         4.6000    1.0770    1.8870 ho        1 MOL      0.404327
    175 H80         4.9430   -0.3080    1.4000 ho        1 MOL      0.404327
@<TRIPOS>BOND
     1    1    2 1   
     2    1    4 1   
     3    1    5 1   
     4    1    6 1   
     5    2    3 2   
     6    2    7 1   
     7    7    8 1   
     8    7   15 1   
     9    8    9 1   
    10    8   11 1   
    11    8   16 1   
    12    9   10 2   
    13    9   19 1   
    14   11   12 1   
    15   11   17 1   
    16   11   18 1   
    17   12   13 1   
    18   12   14 1   
    19   19   20 1   
    20   19   24 1   
    21   20   21 1   
    22   20   23 1   
    23   20   25 1   
    24   21   22 2   
    25   21   29 1   
    26   23   26 1   
    27   23   27 1   
    28   23   28 1   
    29   29   30 1   
    30   29   37 1   
    31   30   31 1   
    32   30   33 1   
    33   30   38 1   
    34   31   32 2   
    35   31   41 1   
    36   33   34 1   
    37   33   39 1   
    38   33   40 1   
    39   34   35 1   
    40   34   36 1   
    41   41   42 1   
    42   41   45 1   
    43   42   43 1   
    44   42   46 1   
    45   42   47 1   
    46   43   44 2   
    47   43   48 1   
    48   48   49 1   
    49   48   56 1   
    50   49   50 1   
    51   49   52 1   
    52   49   57 1   
    53   50   51 2   
    54   50   62 1   
    55   52   53 1   
    56   52   58 1   
    57   52   59 1   
    58   53   54 1   
    59   53   55 2   
    60   54   60 1   
    61   54   61 1   
    62   62   63 1   
    63   62   66 1   
    64   63   64 1   
    65   63   67 1   
    66   63   68 1   
    67   64   65 2   
    68   64   69 1   
    69   69   70 1   
    70   69   76 1   
    71   70   71 1   
    72   70   73 1   
    73   70   77 1   
    74   71   72 2   
    75   71   83 1   
    76   73   74 1   
    77   73   75 1   
    78   73   78 1   
    79   74   80 1   
    80   74   81 1   
    81   74   82 1   
    82   75   79 1   
    83   83   84 1   
    84   83   91 1   
    85   84   85 1   
    86   84   87 1   
    87   84   92 1   
    88   85   86 2   
    89   85  102 1   
    90   87   88 1   
    91   87   89 1   
    92   87   93 1   
    93   88   90 1   
    94   88   94 1   
    95   88   95 1   
    96   89   96 1   
    97   89   97 1   
    98   89   98 1   
    99   90   99 1   
   100   90  100 1   
   101   90  101 1   
   102  102  103 1   
   103  102  110 1   
   104  103  104 1   
   105  103  106 1   
   106  103  111 1   
   107  104  105 2   
   108  104  114 1   
   109  106  107 1   
   110  106  112 1   
   111  106  113 1   
   112  107  108 1   
   113  107  109 1   
   114  114  115 1   
   115  114  125 1   
   116  115  116 1   
   117  115  118 1   
   118  115  126 1   
   119  116  117 2   
   120  116  134 1   
   121  118  119 1   
   122  118  127 1   
   123  118  128 1   
   124  119  120 ar  
   125  119  121 ar  
   126  120  122 ar  
   127  120  129 1   
   128  121  123 ar  
   129  121  130 1   
   130  122  124 ar  
   131  122  131 1   
   132  123  124 ar  
   133  123  132 1   
   134  124  133 1   
   135  134  135 1   
   136  134  140 1   
   137  135  136 1   
   138  135  138 1   
   139  135  141 1   
   140  136  137 2   
   141  136  148 1   
   142  138  139 1   
   143  138  142 1   
   144  138  143 1   
   145  139  140 1   
   146  139  144 1   
   147  139  145 1   
   148  140  146 1   
   149  140  147 1   
   150  148  149 1   
   151  148  157 1   
   152  149  150 1   
   153  149  152 1   
   154  149  158 1   
   155  150  151 2   
   156  150  163 1   
   157  152  153 1   
   158  152  159 1   
   159  152  160 1   
   160  153  154 1   
   161  153  161 1   
   162  153  162 1   
   163  154  155 1   
   164  154  156 1   
   165  163  164 1   
   166  163  168 1   
   167  164  165 1   
   168  164  166 1   
   169  164  167 1   
   170  170  171 1   
   171  170  172 1   
   172  173  174 1   
   173  173  175 1   
@<TRIPOS>SUBSTRUCTURE
     1 MOL         1 TEMP              0 ****  ****    0 ROOT
