@<TRIPOS>MOLECULE
MOL
  189   185     1     0     0
SMALL
resp


@<TRIPOS>ATOM
      1 C1          0.2660    2.2590    5.4030 c3        1 MOL     -0.246332
      2 C2         -0.3210    1.9940    3.9620 c         1 MOL      0.679225
      3 O1          0.2550    2.3520    2.9500 o         1 MOL     -0.572954
      4 H1          0.9680    1.4650    5.6600 hc        1 MOL      0.065553
      5 H2          0.7840    3.2180    5.4150 hc        1 MOL      0.065553
      6 H3         -0.5460    2.2740    6.1300 hc        1 MOL      0.065553
      7 N1         -1.4920    1.3820    3.8150 n         1 MOL     -0.565877
      8 C3         -2.1740    1.2430    2.5680 c3        1 MOL      0.393524
      9 C4         -2.7440    2.5890    2.2030 c         1 MOL      0.238331
     10 O2         -3.7790    3.0460    2.7350 o         1 MOL     -0.564816
     11 C5         -3.3220    0.2200    2.5580 c3        1 MOL     -0.528646
     12 C6         -4.0170    0.0040    1.1850 c         1 MOL      0.924679
     13 O3         -3.4010    0.2250    0.1070 o         1 MOL     -0.698914
     14 O4         -5.1660   -0.4870    1.1550 o         1 MOL     -0.698914
     15 H4         -1.9100    0.9520    4.6300 hn        1 MOL      0.306025
     16 H5         -1.4500    1.0250    1.7720 h1        1 MOL     -0.051841
     17 H6         -4.0830    0.4960    3.2820 hc        1 MOL      0.122138
     18 H7         -2.9180   -0.7710    2.7370 hc        1 MOL      0.122138
     19 N2         -2.2760    3.2860    1.1490 n         1 MOL      0.067713
     20 C7         -2.6530    4.6500    0.8200 c3        1 MOL     -0.049165
     21 C8         -3.4120    4.7420   -0.5190 c         1 MOL      0.522327
     22 O5         -4.1530    5.6940   -0.6880 o         1 MOL     -0.585570
     23 C9         -1.4480    5.6250    0.9090 c3        1 MOL      0.121445
     24 C10        -0.8060    5.8470    2.2770 c3        1 MOL      0.121764
     25 C11        -1.8630    6.1380    3.3550 c3        1 MOL     -0.286129
     26 C12        -2.9440    7.1560    2.9680 c3        1 MOL      0.236772
     27 N3         -3.7740    7.4160    4.1950 n4        1 MOL     -0.227509
     28 H8         -1.5040    2.8010    0.7210 hn        1 MOL      0.145419
     29 H9         -3.4220    5.0760    1.4540 h1        1 MOL      0.056132
     30 H10        -1.8490    6.5850    0.5720 hc        1 MOL     -0.038878
     31 H11        -0.7350    5.3710    0.1190 hc        1 MOL     -0.038878
     32 H12        -0.2060    6.7580    2.2100 hc        1 MOL      0.007180
     33 H13        -0.1100    5.0420    2.5380 hc        1 MOL      0.007180
     34 H14        -1.3220    6.4820    4.2360 hc        1 MOL      0.058040
     35 H15        -2.4230    5.2360    3.6050 hc        1 MOL      0.058040
     36 H16        -3.5700    6.8130    2.1400 hx        1 MOL      0.013319
     37 H17        -2.5030    8.1390    2.7700 hx        1 MOL      0.013319
     38 H18        -4.6650    7.8500    3.9810 hn        1 MOL      0.282489
     39 H19        -3.7990    6.6090    4.8000 hn        1 MOL      0.282489
     40 H20        -3.3900    8.1180    4.8210 hn        1 MOL      0.282489
     41 N4         -3.2470    3.8160   -1.4930 n         1 MOL     -0.349700
     42 C13        -4.1720    3.7560   -2.6870 c3        1 MOL      0.064904
     43 C14        -5.2600    2.6700   -2.5800 c         1 MOL      0.330270
     44 O6         -6.0130    2.4190   -3.5650 o         1 MOL     -0.480631
     45 C15        -3.3060    3.5740   -3.9420 c3        1 MOL     -0.354475
     46 C16        -2.3530    2.3810   -3.9480 c         1 MOL      0.896007
     47 O7         -2.4400    1.5410   -3.0430 o         1 MOL     -0.737820
     48 O8         -1.4100    2.3160   -4.7540 o         1 MOL     -0.737820
     49 H21        -2.6210    3.0270   -1.4390 hn        1 MOL      0.211618
     50 H22        -4.6590    4.7330   -2.7260 h1        1 MOL      0.124559
     51 H23        -2.8180    4.5370   -4.0440 hc        1 MOL      0.079789
     52 H24        -3.9040    3.5920   -4.8510 hc        1 MOL      0.079789
     53 N5         -5.4900    2.1620   -1.3840 n         1 MOL     -0.204699
     54 C17        -6.8200    1.5940   -0.9680 c3        1 MOL     -0.130260
     55 C18        -7.1380    0.2060   -1.4080 c         1 MOL      0.498313
     56 O9         -8.2960    0.0550   -1.8940 o         1 MOL     -0.598529
     57 H25        -4.8140    2.3910   -0.6770 hn        1 MOL      0.187398
     58 H26        -7.5470    2.3400   -1.2800 h1        1 MOL      0.094003
     59 H27        -6.8120    1.5390    0.1130 h1        1 MOL      0.094003
     60 N6         -6.1940   -0.7140   -1.5350 n         1 MOL     -0.024019
     61 C19        -6.5010   -2.0410   -2.1640 c3        1 MOL      0.022152
     62 C20        -6.6120   -3.1700   -1.1290 c         1 MOL      0.387260
     63 O10        -6.7630   -4.3740   -1.4850 o         1 MOL     -0.532146
     64 C21        -5.5820   -2.3320   -3.3220 c3        1 MOL     -0.239245
     65 C22        -4.1370   -2.1100   -2.9620 c         1 MOL      0.781265
     66 O11        -3.7430   -2.3340   -1.8060 o         1 MOL     -0.708704
     67 O12        -3.2740   -1.7290   -3.7510 o         1 MOL     -0.708704
     68 H28        -5.3700   -0.6710   -0.9470 hn        1 MOL     -0.079118
     69 H29        -7.4730   -2.1220   -2.6460 h1        1 MOL      0.112736
     70 H30        -5.7850   -1.5810   -4.0860 hc        1 MOL      0.077030
     71 H31        -5.6350   -3.3580   -3.6820 hc        1 MOL      0.077030
     72 N7         -6.5690   -2.8290    0.1240 n         1 MOL     -0.362703
     73 C23        -6.4710   -3.7860    1.2170 c3        1 MOL      0.045770
     74 C24        -5.1330   -4.4670    1.3790 c         1 MOL      0.395942
     75 O13        -4.9600   -5.3710    2.2510 o         1 MOL     -0.565095
     76 H32        -6.4740   -1.8540    0.3810 hn        1 MOL      0.294501
     77 H33        -7.2110   -4.5880    1.1230 h1        1 MOL      0.063789
     78 H34        -6.7070   -3.3740    2.1980 h1        1 MOL      0.063789
     79 N8         -4.1060   -4.0070    0.6960 n         1 MOL     -0.024635
     80 C25        -2.7200   -4.5490    0.9240 c3        1 MOL     -0.371045
     81 C26        -1.6990   -3.4470    1.0550 c         1 MOL      0.925727
     82 O14        -1.9290   -2.3400    0.6310 o         1 MOL     -0.789527
     83 C27        -2.2810   -5.5550   -0.0980 c3        1 MOL      0.452844
     84 C28        -3.1490   -6.7780   -0.1010 c3        1 MOL     -0.460161
     85 O15        -2.4120   -4.9600   -1.3440 oh        1 MOL     -0.597973
     86 H35        -4.2100   -3.2330    0.0570 hn        1 MOL      0.160047
     87 H36        -2.6740   -5.1140    1.8590 h1        1 MOL      0.114210
     88 H37        -1.2360   -5.8520   -0.0090 h1        1 MOL      0.018572
     89 H38        -3.1430   -4.3450   -1.2860 ho        1 MOL      0.373852
     90 H39        -2.6000   -7.5480   -0.6410 hc        1 MOL      0.117500
     91 H40        -3.2780   -7.1590    0.9180 hc        1 MOL      0.117500
     92 H41        -4.1490   -6.7100   -0.5200 hc        1 MOL      0.117500
     93 N9         -0.5100   -3.7990    1.6490 n         1 MOL     -0.691064
     94 C29         0.6590   -2.8930    1.8780 c3        1 MOL      0.207392
     95 C30         1.9560   -3.3280    1.1580 c         1 MOL      0.403796
     96 O16         2.4420   -4.4570    1.4750 o         1 MOL     -0.536921
     97 C31         0.8340   -2.6960    3.3660 c3        1 MOL      0.066822
     98 C32        -0.3740   -2.1030    4.1190 c3        1 MOL      0.108167
     99 C33         2.1530   -1.8970    3.6850 c3        1 MOL     -0.275198
    100 C34        -0.3110   -2.5030    5.6360 c3        1 MOL     -0.374888
    101 H42        -0.4910   -4.7000    2.1080 hn        1 MOL      0.299582
    102 H43         0.3930   -1.9270    1.4700 h1        1 MOL      0.098679
    103 H44         1.0050   -3.6710    3.8150 hc        1 MOL      0.026500
    104 H45        -1.2440   -2.4420    3.5660 hc        1 MOL     -0.006720
    105 H46        -0.4280   -1.0230    3.9750 hc        1 MOL     -0.006720
    106 H47         2.3720   -1.7050    4.7370 hc        1 MOL      0.052704
    107 H48         3.0730   -2.2830    3.2260 hc        1 MOL      0.052704
    108 H49         2.1410   -0.9060    3.2420 hc        1 MOL      0.052704
    109 H50        -0.0630   -3.5700    5.6860 hc        1 MOL      0.092796
    110 H51         0.4500   -1.9930    6.2270 hc        1 MOL      0.092796
    111 H52        -1.3010   -2.3780    6.0780 hc        1 MOL      0.092796
    112 N10         2.5140   -2.5770    0.1830 n         1 MOL     -0.158975
    113 C35         3.6800   -2.9050   -0.5690 c3        1 MOL     -0.006128
    114 C36         5.0240   -2.7760    0.2270 c         1 MOL      0.332904
    115 O17         5.0280   -2.2040    1.3400 o         1 MOL     -0.377908
    116 C37         3.8020   -2.0930   -1.9020 c3        1 MOL     -0.014421
    117 C38         2.7330   -2.3930   -2.9320 c3        1 MOL     -0.311147
    118 O18         3.7180   -0.7060   -1.5910 oh        1 MOL     -0.338236
    119 H53         1.9250   -1.8200   -0.1470 hn        1 MOL      0.201071
    120 H54         3.5510   -3.9590   -0.8450 h1        1 MOL      0.087591
    121 H55         4.7680   -2.2520   -2.3730 h1        1 MOL      0.057464
    122 H56         3.5790   -0.2380   -2.4080 ho        1 MOL      0.348134
    123 H57         2.9600   -2.0850   -3.9480 hc        1 MOL      0.106037
    124 H58         2.5480   -3.4700   -2.9660 hc        1 MOL      0.106037
    125 H59         1.8370   -1.8530   -2.6220 hc        1 MOL      0.106037
    126 N11         6.1500   -3.1810   -0.3730 n         1 MOL     -0.199772
    127 C39         7.4620   -2.8370    0.0810 c3        1 MOL     -0.063895
    128 C40         7.6060   -1.3290    0.0520 c         1 MOL      0.210847
    129 O19         7.9350   -0.7210    1.1080 o         1 MOL     -0.435717
    130 C41         8.4690   -3.3980   -0.9040 c3        1 MOL      0.437386
    131 C42         9.8840   -3.2800   -0.2930 c3        1 MOL     -0.481643
    132 O20         8.2010   -4.7560   -1.0340 oh        1 MOL     -0.634562
    133 H60         6.0500   -3.7460   -1.2010 hn        1 MOL      0.213278
    134 H61         7.6860   -3.2710    1.0550 h1        1 MOL      0.149696
    135 H62         8.3340   -2.9860   -1.9070 h1        1 MOL     -0.042278
    136 H63         8.9500   -5.0650   -1.5590 ho        1 MOL      0.399114
    137 H64        10.5870   -3.4550   -1.1040 hc        1 MOL      0.132163
    138 H65         9.9210   -2.2540    0.0800 hc        1 MOL      0.132163
    139 H66         9.9640   -4.0430    0.4770 hc        1 MOL      0.132163
    140 N12         7.0270   -0.6040   -0.9350 n         1 MOL     -0.206522
    141 C43         7.2370    0.8840   -0.9740 c3        1 MOL     -0.023259
    142 C44         6.3950    1.5870    0.1280 c         1 MOL      0.245468
    143 O21         6.9550    2.3310    0.8470 o         1 MOL     -0.472412
    144 C45         6.8120    1.4180   -2.3500 c3        1 MOL     -0.069584
    145 C46         7.3090    2.9420   -2.3980 c3        1 MOL     -0.034349
    146 C47         7.2840    3.4600   -3.7950 c3        1 MOL      0.194100
    147 C48         7.3660    4.9790   -4.0200 c3        1 MOL     -0.036621
    148 N13         8.0130    5.2910   -5.3110 n4        1 MOL     -0.258796
    149 H67         6.6740   -1.1570   -1.6990 hn        1 MOL      0.175771
    150 H68         8.2810    1.1540   -0.8110 h1        1 MOL      0.134702
    151 H69         5.7390    1.2780   -2.4650 hc        1 MOL      0.006389
    152 H70         7.4010    0.8480   -3.0720 hc        1 MOL      0.006389
    153 H71         8.3440    3.0350   -2.0980 hc        1 MOL      0.027366
    154 H72         6.5920    3.5370   -1.8280 hc        1 MOL      0.027366
    155 H73         6.4220    3.0460   -4.3150 hc        1 MOL     -0.029402
    156 H74         8.1120    3.0000   -4.3480 hc        1 MOL     -0.029402
    157 H75         7.8310    5.4700   -3.1690 hx        1 MOL      0.093540
    158 H76         6.3100    5.2550   -4.0540 hx        1 MOL      0.093540
    159 H77         8.9920    5.0600   -5.3960 hn        1 MOL      0.289099
    160 H78         7.5600    4.8200   -6.0820 hn        1 MOL      0.289099
    161 H79         7.9710    6.2880   -5.4640 hn        1 MOL      0.289099
    162 N14         5.0940    1.2540    0.1800 n         1 MOL      0.048776
    163 C49         4.1670    1.9010    1.0800 c3        1 MOL     -0.138457
    164 C50         4.4480    1.7170    2.4800 c         1 MOL      0.379842
    165 O22         4.2390    2.6420    3.2660 o         1 MOL     -0.551277
    166 C51         2.7480    1.3130    0.8070 c3        1 MOL      0.177201
    167 C52         1.9500    1.8650   -0.3490 c3        1 MOL     -0.164956
    168 C53         0.6460    1.0350   -0.4330 c         1 MOL      0.723418
    169 O23        -0.4320    1.6520   -0.6290 o         1 MOL     -0.725648
    170 O24         0.6900   -0.2020   -0.5820 o         1 MOL     -0.725648
    171 H80         4.7020    0.7330   -0.5890 hn        1 MOL      0.129441
    172 H81         4.1670    2.9660    0.8270 h1        1 MOL      0.082545
    173 H82         2.1400    1.4840    1.6910 hc        1 MOL     -0.036362
    174 H83         2.9060    0.2580    0.6080 hc        1 MOL     -0.036362
    175 H84         2.5880    1.7360   -1.2150 hc        1 MOL      0.005324
    176 H85         1.7190    2.9220   -0.1960 hc        1 MOL      0.005324
    177 N15         5.0800    0.5880    2.8710 n         1 MOL      0.073835
    178 C54         5.4500    0.4490    4.2840 c3        1 MOL     -0.395792
    179 H86         6.1260   -0.3990    4.3990 h1        1 MOL      0.132083
    180 H87         5.9480    1.3580    4.6210 h1        1 MOL      0.132083
    181 H88         4.5530    0.2820    4.8790 h1        1 MOL      0.132083
    182 H89         5.2080   -0.1480    2.1900 hn        1 MOL      0.116004
    183 Ca1        -1.6750   -0.6980   -1.5170 Ca        1 MOL      1.776290
    184 O25         0.0120    0.2870   -3.5110 oh        1 MOL     -0.859861
    185 H90         0.8820    0.6670   -3.6020 ho        1 MOL      0.399498
    186 H91        -0.5820    0.9680   -3.8250 ho        1 MOL      0.399498
    187 O26        -0.5090   -3.1570   -2.2540 oh        1 MOL     -0.859861
    188 H92        -0.8570   -3.9710   -1.8860 ho        1 MOL      0.399498
    189 H93        -0.6150   -3.2520   -3.2030 ho        1 MOL      0.399498
@<TRIPOS>BOND
     1    1    2 1   
     2    1    4 1   
     3    1    5 1   
     4    1    6 1   
     5    2    3 2   
     6    2    7 1   
     7    7    8 1   
     8    7   15 1   
     9    8    9 1   
    10    8   11 1   
    11    8   16 1   
    12    9   10 2   
    13    9   19 1   
    14   11   12 1   
    15   11   17 1   
    16   11   18 1   
    17   12   13 1   
    18   12   14 1   
    19   19   20 1   
    20   19   28 1   
    21   20   21 1   
    22   20   23 1   
    23   20   29 1   
    24   21   22 2   
    25   21   41 1   
    26   23   24 1   
    27   23   30 1   
    28   23   31 1   
    29   24   25 1   
    30   24   32 1   
    31   24   33 1   
    32   25   26 1   
    33   25   34 1   
    34   25   35 1   
    35   26   27 1   
    36   26   36 1   
    37   26   37 1   
    38   27   38 1   
    39   27   39 1   
    40   27   40 1   
    41   41   42 1   
    42   41   49 1   
    43   42   43 1   
    44   42   45 1   
    45   42   50 1   
    46   43   44 2   
    47   43   53 1   
    48   45   46 1   
    49   45   51 1   
    50   45   52 1   
    51   46   47 1   
    52   46   48 1   
    53   53   54 1   
    54   53   57 1   
    55   54   55 1   
    56   54   58 1   
    57   54   59 1   
    58   55   56 2   
    59   55   60 1   
    60   60   61 1   
    61   60   68 1   
    62   61   62 1   
    63   61   64 1   
    64   61   69 1   
    65   62   63 2   
    66   62   72 1   
    67   64   65 1   
    68   64   70 1   
    69   64   71 1   
    70   65   66 1   
    71   65   67 1   
    72   72   73 1   
    73   72   76 1   
    74   73   74 1   
    75   73   77 1   
    76   73   78 1   
    77   74   75 2   
    78   74   79 1   
    79   79   80 1   
    80   79   86 1   
    81   80   81 1   
    82   80   83 1   
    83   80   87 1   
    84   81   82 2   
    85   81   93 1   
    86   83   84 1   
    87   83   85 1   
    88   83   88 1   
    89   84   90 1   
    90   84   91 1   
    91   84   92 1   
    92   85   89 1   
    93   93   94 1   
    94   93  101 1   
    95   94   95 1   
    96   94   97 1   
    97   94  102 1   
    98   95   96 2   
    99   95  112 1   
   100   97   98 1   
   101   97   99 1   
   102   97  103 1   
   103   98  100 1   
   104   98  104 1   
   105   98  105 1   
   106   99  106 1   
   107   99  107 1   
   108   99  108 1   
   109  100  109 1   
   110  100  110 1   
   111  100  111 1   
   112  112  113 1   
   113  112  119 1   
   114  113  114 1   
   115  113  116 1   
   116  113  120 1   
   117  114  115 2   
   118  114  126 1   
   119  116  117 1   
   120  116  118 1   
   121  116  121 1   
   122  117  123 1   
   123  117  124 1   
   124  117  125 1   
   125  118  122 1   
   126  126  127 1   
   127  126  133 1   
   128  127  128 1   
   129  127  130 1   
   130  127  134 1   
   131  128  129 2   
   132  128  140 1   
   133  130  131 1   
   134  130  132 1   
   135  130  135 1   
   136  131  137 1   
   137  131  138 1   
   138  131  139 1   
   139  132  136 1   
   140  140  141 1   
   141  140  149 1   
   142  141  142 1   
   143  141  144 1   
   144  141  150 1   
   145  142  143 2   
   146  142  162 1   
   147  144  145 1   
   148  144  151 1   
   149  144  152 1   
   150  145  146 1   
   151  145  153 1   
   152  145  154 1   
   153  146  147 1   
   154  146  155 1   
   155  146  156 1   
   156  147  148 1   
   157  147  157 1   
   158  147  158 1   
   159  148  159 1   
   160  148  160 1   
   161  148  161 1   
   162  162  163 1   
   163  162  171 1   
   164  163  164 1   
   165  163  166 1   
   166  163  172 1   
   167  164  165 2   
   168  164  177 1   
   169  166  167 1   
   170  166  173 1   
   171  166  174 1   
   172  167  168 1   
   173  167  175 1   
   174  167  176 1   
   175  168  169 1   
   176  168  170 1   
   177  177  178 1   
   178  177  182 1   
   179  178  179 1   
   180  178  180 1   
   181  178  181 1   
   182  184  185 1   
   183  184  186 1   
   184  187  188 1   
   185  187  189 1   
@<TRIPOS>SUBSTRUCTURE
     1 MOL         1 TEMP              0 ****  ****    0 ROOT
