@<TRIPOS>MOLECULE
MOL
  176   174     1     0     0
SMALL
resp


@<TRIPOS>ATOM
      1 C1          1.6800    2.5380    6.2960 c3        1 MOL     -0.213030
      2 C2          1.0750    2.1950    4.9040 c         1 MOL      0.767135
      3 O1          1.8580    2.0010    4.0190 o         1 MOL     -0.601949
      4 H1          2.6330    3.0490    6.1610 hc        1 MOL      0.052073
      5 H2          0.9940    3.1860    6.8410 hc        1 MOL      0.052073
      6 H3          1.8370    1.6190    6.8600 hc        1 MOL      0.052073
      7 N1         -0.2470    2.0950    4.6620 n         1 MOL     -0.708127
      8 C3         -0.8030    1.9270    3.3640 c3        1 MOL      0.071920
      9 C4         -1.1100    3.2590    2.5640 c         1 MOL      0.663476
     10 O2         -2.0010    3.9800    3.0270 o         1 MOL     -0.527896
     11 C5         -2.0360    1.0850    3.3710 c3        1 MOL     -0.052531
     12 C6         -2.6460    0.8890    2.0040 c         1 MOL      0.677455
     13 O3         -3.9080    0.8730    1.8920 o         1 MOL     -0.718602
     14 O4         -1.8590    0.6510    1.0630 o         1 MOL     -0.718602
     15 H4         -0.9170    2.3130    5.3880 hn        1 MOL      0.351638
     16 H5         -0.1440    1.2280    2.8370 h1        1 MOL      0.042263
     17 H6         -2.8070    1.5580    3.9720 hc        1 MOL      0.005644
     18 H7         -1.7650    0.0880    3.7130 hc        1 MOL      0.005644
     19 N2         -0.3350    3.4810    1.4740 n         1 MOL     -0.528039
     20 C7         -0.3940    4.7960    0.7500 c3        1 MOL      0.020919
     21 C8         -1.6630    5.1040   -0.0130 c         1 MOL      0.323374
     22 O5         -2.1430    6.2310    0.1020 o         1 MOL     -0.511325
     23 C9          0.7450    4.6740   -0.2330 c3        1 MOL     -0.052067
     24 C10         1.0100    6.0090   -0.9300 c3        1 MOL     -0.325462
     25 C11         2.3570    6.0460   -1.5950 c3        1 MOL      0.000540
     26 C12         2.7040    7.2460   -2.4520 c3        1 MOL      0.054405
     27 N3          4.0400    7.1600   -2.9960 n4        1 MOL     -0.410928
     28 H8          0.3370    2.8080    1.1380 hn        1 MOL      0.289812
     29 H9         -0.2950    5.6150    1.4650 h1        1 MOL      0.105495
     30 H10         0.5410    3.9050   -0.9750 hc        1 MOL      0.109065
     31 H11         1.6650    4.3870    0.2820 hc        1 MOL      0.109065
     32 H12         1.0670    6.6640   -0.0560 hc        1 MOL      0.120976
     33 H13         0.1890    6.3760   -1.5480 hc        1 MOL      0.120976
     34 H14         2.4300    5.1740   -2.2520 hc        1 MOL      0.044227
     35 H15         3.1930    5.7830   -0.9520 hc        1 MOL      0.044227
     36 H16         2.5590    8.1610   -1.8750 hx        1 MOL      0.079822
     37 H17         1.9010    7.3080   -3.1860 hx        1 MOL      0.079822
     38 H18         4.1860    7.9290   -3.6370 hn        1 MOL      0.348094
     39 H19         4.7410    7.1680   -2.2640 hn        1 MOL      0.348094
     40 H20         4.0900    6.3540   -3.6050 hn        1 MOL      0.348094
     41 N4         -2.0950    4.2040   -0.8380 n         1 MOL     -0.217192
     42 C13        -3.2860    4.4760   -1.7480 c3        1 MOL     -0.001609
     43 C14        -4.6640    4.2810   -1.0820 c         1 MOL      0.468384
     44 O6         -5.6360    4.8250   -1.5530 o         1 MOL     -0.544464
     45 C15        -3.2140    3.5250   -2.9670 c3        1 MOL     -0.224487
     46 C16        -2.7300    2.0460   -2.6560 c         1 MOL      0.665100
     47 O7         -3.3790    1.5280   -1.7420 o         1 MOL     -0.738990
     48 O8         -1.7110    1.4670   -3.0970 o         1 MOL     -0.738990
     49 H21        -1.5070    3.3880   -0.9650 hn        1 MOL      0.267931
     50 H22        -3.2820    5.5050   -2.1110 h1        1 MOL      0.097853
     51 H23        -2.6480    3.9380   -3.8040 hc        1 MOL      0.062085
     52 H24        -4.2730    3.4340   -3.2280 hc        1 MOL      0.062085
     53 N5         -4.6900    3.4850   -0.0240 n         1 MOL     -0.111516
     54 C17        -5.9050    3.0120    0.6840 c3        1 MOL     -0.419392
     55 C18        -6.5550    1.7190    0.1040 c         1 MOL      0.592353
     56 O9         -7.6910    1.3600    0.5450 o         1 MOL     -0.591557
     57 H25        -3.7670    3.0790    0.0780 hn        1 MOL      0.178662
     58 H26        -6.7100    3.7440    0.6920 h1        1 MOL      0.195659
     59 H27        -5.4970    2.7870    1.6710 h1        1 MOL      0.195659
     60 N6         -5.9400    0.9080   -0.7370 n         1 MOL     -0.330149
     61 C19        -6.5170   -0.3490   -1.1980 c3        1 MOL      0.104002
     62 C20        -6.4740   -1.4350   -0.0870 c         1 MOL      0.292506
     63 O10        -7.0690   -2.4640   -0.3170 o         1 MOL     -0.456255
     64 C21        -5.9580   -0.8560   -2.5420 c3        1 MOL     -0.520790
     65 C22        -4.5100   -1.0340   -2.5550 c         1 MOL      0.850712
     66 N7         -4.0050   -1.0250   -3.7640 n         1 MOL     -0.636197
     67 O11        -3.8640   -1.3230   -1.5740 o         1 MOL     -0.766591
     68 H28        -5.0050    1.0630   -1.0800 hn        1 MOL      0.274686
     69 H29        -7.5910   -0.1710   -1.2730 h1        1 MOL      0.089863
     70 H30        -6.2680   -0.1360   -3.2990 hc        1 MOL      0.170445
     71 H31        -6.3230   -1.8460   -2.8620 hc        1 MOL      0.170445
     72 H32        -4.6020   -0.9840   -4.5740 hn        1 MOL      0.296245
     73 H33        -3.0440   -1.3310   -3.8900 hn        1 MOL      0.296245
     74 N8         -5.7770   -1.1180    1.0240 n         1 MOL      0.041227
     75 C23        -5.9570   -1.9840    2.2030 c3        1 MOL     -0.084264
     76 C24        -4.8720   -3.0970    2.4660 c         1 MOL      0.481750
     77 O12        -5.1020   -4.1110    3.1120 o         1 MOL     -0.558348
     78 H34        -5.2260   -0.2620    0.9770 hn        1 MOL      0.146766
     79 H35        -6.9750   -2.3790    2.2210 h1        1 MOL      0.059642
     80 H36        -5.9740   -1.2430    3.0030 h1        1 MOL      0.059642
     81 N9         -3.8010   -2.9750    1.7920 n         1 MOL     -0.239982
     82 C25        -2.5720   -3.7930    1.7780 c3        1 MOL      0.009559
     83 C26        -1.2890   -3.0100    1.4530 c         1 MOL      0.550423
     84 O13        -1.2500   -2.2480    0.5040 o         1 MOL     -0.653653
     85 C27        -2.7860   -5.0240    0.9060 c3        1 MOL     -0.024091
     86 C28        -3.2100   -4.8310   -0.5020 ca        1 MOL      0.074153
     87 C29        -2.2320   -4.8540   -1.5790 ca        1 MOL     -0.271440
     88 C30        -4.6270   -4.6150   -0.8510 ca        1 MOL     -0.271440
     89 C31        -2.6080   -4.6670   -2.9310 ca        1 MOL     -0.105654
     90 C32        -4.9650   -4.4170   -2.2290 ca        1 MOL     -0.105654
     91 C33        -3.9500   -4.4450   -3.2530 ca        1 MOL      0.180246
     92 O14        -4.3830   -4.2750   -4.5410 oh        1 MOL     -0.448649
     93 H37        -3.8310   -2.2280    1.1110 hn        1 MOL      0.211385
     94 H38        -2.4470   -4.2070    2.7790 h1        1 MOL      0.041362
     95 H39        -3.4590   -5.6700    1.4720 hc        1 MOL      0.047197
     96 H40        -1.8840   -5.6410    0.9230 hc        1 MOL      0.047197
     97 H41        -1.1960   -4.9570   -1.3130 ha        1 MOL      0.189977
     98 H42        -5.4700   -4.6030   -0.1750 ha        1 MOL      0.189977
     99 H43        -1.8370   -4.6360   -3.6860 ha        1 MOL      0.094204
    100 H44        -5.9700   -4.2390   -2.5740 ha        1 MOL      0.094204
    101 H45        -3.6970   -4.3500   -5.2070 ho        1 MOL      0.335394
    102 N10        -0.1610   -3.3910    2.0820 n         1 MOL     -0.393226
    103 C34         1.1720   -2.7390    1.9650 c3        1 MOL     -0.070858
    104 C35         1.9990   -3.6980    1.1010 c         1 MOL      0.392644
    105 O15         1.9810   -4.9250    1.2790 o         1 MOL     -0.522597
    106 C36         1.8050   -2.4960    3.3660 c3        1 MOL      0.197121
    107 C37         0.8540   -1.7250    4.3870 c3        1 MOL      0.184441
    108 C38         3.1310   -1.7450    3.1940 c3        1 MOL     -0.641641
    109 C39         1.1490   -2.0830    5.8950 c3        1 MOL     -0.341884
    110 H46        -0.2460   -4.1350    2.7710 hn        1 MOL      0.279872
    111 H47         1.0450   -1.7580    1.5030 h1        1 MOL      0.113652
    112 H48         2.0290   -3.4580    3.8110 hc        1 MOL      0.012828
    113 H49        -0.1550   -2.1080    4.2540 hc        1 MOL     -0.017499
    114 H50         0.9680   -0.6500    4.1980 hc        1 MOL     -0.017499
    115 H51         3.8720   -2.4630    2.8330 hc        1 MOL      0.148246
    116 H52         3.1170   -0.8410    2.5750 hc        1 MOL      0.148246
    117 H53         3.4520   -1.2890    4.1250 hc        1 MOL      0.148246
    118 H54         0.4910   -1.5120    6.5370 hc        1 MOL      0.083996
    119 H55         1.1730   -3.1470    6.1500 hc        1 MOL      0.083996
    120 H56         2.1770   -1.7550    6.0760 hc        1 MOL      0.083996
    121 N11         2.7500   -3.0540    0.2300 n         1 MOL     -0.019946
    122 C40         3.6970   -3.7250   -0.5730 c3        1 MOL     -0.113250
    123 C41         5.1900   -3.0830   -0.5100 c         1 MOL      0.484743
    124 O16         5.4480   -2.2080    0.3050 o         1 MOL     -0.456374
    125 C42         3.2760   -3.6280   -2.0730 c3        1 MOL     -0.080113
    126 O17         3.0010   -2.2480   -2.3950 oh        1 MOL     -0.576408
    127 H57         2.5120   -2.0800    0.0840 hn        1 MOL      0.248700
    128 H58         3.7620   -4.7790   -0.2760 h1        1 MOL      0.087683
    129 H59         2.2940   -4.0830   -2.1940 h1        1 MOL      0.079455
    130 H60         4.0850   -4.0110   -2.6970 h1        1 MOL      0.079455
    131 H61         2.2130   -1.9650   -1.9340 ho        1 MOL      0.405898
    132 N12         6.1990   -3.6250   -1.1920 n         1 MOL     -0.466197
    133 C43         7.6390   -3.2860   -0.8880 c3        1 MOL      0.207609
    134 C44         7.9900   -1.7960   -1.1530 c         1 MOL      0.410855
    135 O18         8.7190   -1.1960   -0.3640 o         1 MOL     -0.502661
    136 C45         8.5260   -4.2260   -1.6610 c3        1 MOL     -0.348933
    137 H62         5.9590   -4.4310   -1.7570 hn        1 MOL      0.286866
    138 H63         7.8870   -3.4600    0.1610 h1        1 MOL      0.076042
    139 H64         9.5730   -3.9450   -1.5540 hc        1 MOL      0.102476
    140 H65         8.3170   -5.2490   -1.3420 hc        1 MOL      0.102476
    141 H66         8.3220   -4.1070   -2.7200 hc        1 MOL      0.102476
    142 N13         7.4230   -1.1760   -2.1950 n         1 MOL     -0.343409
    143 C46         7.7810    0.2210   -2.4480 c3        1 MOL      0.124943
    144 C47         6.9300    1.1080   -1.5330 c         1 MOL      0.374107
    145 O19         7.2990    2.2140   -1.2260 o         1 MOL     -0.485122
    146 C48         7.4620    0.5860   -3.9020 c3        1 MOL     -0.263563
    147 H67         7.0130   -1.7290   -2.9400 hn        1 MOL      0.268067
    148 H68         8.8070    0.5070   -2.2210 h1        1 MOL      0.092443
    149 H69         7.9930    1.4930   -4.1900 hc        1 MOL      0.072228
    150 H70         7.7240   -0.2430   -4.5700 hc        1 MOL      0.072228
    151 H71         6.3810    0.6490   -4.0310 hc        1 MOL      0.072228
    152 N14         5.6800    0.6990   -1.1720 n         1 MOL     -0.200990
    153 C49         4.9790    1.4400   -0.0760 c3        1 MOL     -0.199211
    154 C50         5.6890    1.5710    1.2640 c         1 MOL      0.445864
    155 O20         5.8040    2.6530    1.8780 o         1 MOL     -0.537449
    156 C51         3.6340    0.7060    0.1300 c3        1 MOL      0.032941
    157 C52         2.8470    0.9940   -1.1080 c3        1 MOL     -0.180496
    158 C53         1.4390    0.5590   -0.8570 c         1 MOL      0.828374
    159 O21         1.1190   -0.6170   -0.9910 o         1 MOL     -0.825469
    160 O22         0.4930    1.3970   -0.6570 o         1 MOL     -0.825469
    161 H72         5.3090   -0.1240   -1.6260 hn        1 MOL      0.235036
    162 H73         4.7670    2.4590   -0.4070 h1        1 MOL      0.100863
    163 H74         3.0700    1.1120    0.9660 hc        1 MOL      0.064770
    164 H75         3.8250   -0.3600    0.2580 hc        1 MOL      0.064770
    165 H76         3.3030    0.4540   -1.9310 hc        1 MOL      0.002597
    166 H77         2.8860    2.0660   -1.2880 hc        1 MOL      0.002597
    167 N15         6.2150    0.4440    1.7360 n         1 MOL     -0.014313
    168 C54         6.9820    0.1980    2.9740 c3        1 MOL     -0.420924
    169 H78         7.8720    0.8280    2.9810 h1        1 MOL      0.148167
    170 H79         6.3620    0.4340    3.8390 h1        1 MOL      0.148167
    171 H80         7.2800   -0.8500    3.0150 h1        1 MOL      0.148167
    172 H81         6.2190   -0.3210    1.0690 hn        1 MOL      0.141219
    173 Ca1        -1.4840   -0.3080   -1.2200 Ca        1 MOL      1.844021
    174 O23        -1.0230   -1.6060   -3.5630 oh        1 MOL     -0.879675
    175 H82        -0.6220   -2.4640   -3.7280 ho        1 MOL      0.432822
    176 H83        -0.9740   -1.1510   -4.3950 ho        1 MOL      0.432822
@<TRIPOS>BOND
     1    1    2 1   
     2    1    4 1   
     3    1    5 1   
     4    1    6 1   
     5    2    3 2   
     6    2    7 1   
     7    7    8 1   
     8    7   15 1   
     9    8    9 1   
    10    8   11 1   
    11    8   16 1   
    12    9   10 2   
    13    9   19 1   
    14   11   12 1   
    15   11   17 1   
    16   11   18 1   
    17   12   13 1   
    18   12   14 1   
    19   19   20 1   
    20   19   28 1   
    21   20   21 1   
    22   20   23 1   
    23   20   29 1   
    24   21   22 2   
    25   21   41 1   
    26   23   24 1   
    27   23   30 1   
    28   23   31 1   
    29   24   25 1   
    30   24   32 1   
    31   24   33 1   
    32   25   26 1   
    33   25   34 1   
    34   25   35 1   
    35   26   27 1   
    36   26   36 1   
    37   26   37 1   
    38   27   38 1   
    39   27   39 1   
    40   27   40 1   
    41   41   42 1   
    42   41   49 1   
    43   42   43 1   
    44   42   45 1   
    45   42   50 1   
    46   43   44 2   
    47   43   53 1   
    48   45   46 1   
    49   45   51 1   
    50   45   52 1   
    51   46   47 1   
    52   46   48 1   
    53   53   54 1   
    54   53   57 1   
    55   54   55 1   
    56   54   58 1   
    57   54   59 1   
    58   55   56 2   
    59   55   60 1   
    60   60   61 1   
    61   60   68 1   
    62   61   62 1   
    63   61   64 1   
    64   61   69 1   
    65   62   63 2   
    66   62   74 1   
    67   64   65 1   
    68   64   70 1   
    69   64   71 1   
    70   65   66 1   
    71   65   67 2   
    72   66   72 1   
    73   66   73 1   
    74   74   75 1   
    75   74   78 1   
    76   75   76 1   
    77   75   79 1   
    78   75   80 1   
    79   76   77 2   
    80   76   81 1   
    81   81   82 1   
    82   81   93 1   
    83   82   83 1   
    84   82   85 1   
    85   82   94 1   
    86   83   84 2   
    87   83  102 1   
    88   85   86 1   
    89   85   95 1   
    90   85   96 1   
    91   86   87 ar  
    92   86   88 ar  
    93   87   89 ar  
    94   87   97 1   
    95   88   90 ar  
    96   88   98 1   
    97   89   91 ar  
    98   89   99 1   
    99   90   91 ar  
   100   90  100 1   
   101   91   92 1   
   102   92  101 1   
   103  102  103 1   
   104  102  110 1   
   105  103  104 1   
   106  103  106 1   
   107  103  111 1   
   108  104  105 2   
   109  104  121 1   
   110  106  107 1   
   111  106  108 1   
   112  106  112 1   
   113  107  109 1   
   114  107  113 1   
   115  107  114 1   
   116  108  115 1   
   117  108  116 1   
   118  108  117 1   
   119  109  118 1   
   120  109  119 1   
   121  109  120 1   
   122  121  122 1   
   123  121  127 1   
   124  122  123 1   
   125  122  125 1   
   126  122  128 1   
   127  123  124 2   
   128  123  132 1   
   129  125  126 1   
   130  125  129 1   
   131  125  130 1   
   132  126  131 1   
   133  132  133 1   
   134  132  137 1   
   135  133  134 1   
   136  133  136 1   
   137  133  138 1   
   138  134  135 2   
   139  134  142 1   
   140  136  139 1   
   141  136  140 1   
   142  136  141 1   
   143  142  143 1   
   144  142  147 1   
   145  143  144 1   
   146  143  146 1   
   147  143  148 1   
   148  144  145 2   
   149  144  152 1   
   150  146  149 1   
   151  146  150 1   
   152  146  151 1   
   153  152  153 1   
   154  152  161 1   
   155  153  154 1   
   156  153  156 1   
   157  153  162 1   
   158  154  155 2   
   159  154  167 1   
   160  156  157 1   
   161  156  163 1   
   162  156  164 1   
   163  157  158 1   
   164  157  165 1   
   165  157  166 1   
   166  158  159 1   
   167  158  160 1   
   168  167  168 1   
   169  167  172 1   
   170  168  169 1   
   171  168  170 1   
   172  168  171 1   
   173  174  175 1   
   174  174  176 1   
@<TRIPOS>SUBSTRUCTURE
     1 MOL         1 TEMP              0 ****  ****    0 ROOT
