@<TRIPOS>MOLECULE
MOL
  179   176     1     0     0
SMALL
resp


@<TRIPOS>ATOM
      1 C1          2.5000    3.1900    4.4070 c3        1 MOL     -0.052781
      2 C2          1.7130    3.0030    3.1290 c         1 MOL      0.596006
      3 O1          2.1840    2.8530    1.9710 o         1 MOL     -0.578701
      4 H1          3.5660    3.1810    4.1800 hc        1 MOL      0.017142
      5 H2          2.2340    4.1430    4.8630 hc        1 MOL      0.017142
      6 H3          2.2700    2.3780    5.0970 hc        1 MOL      0.017142
      7 N1          0.3630    2.9330    3.2290 n         1 MOL     -0.588133
      8 C3         -0.6130    2.7390    2.1660 c3        1 MOL      0.239570
      9 C4         -0.9280    4.0500    1.4070 c         1 MOL      0.430596
     10 O2         -2.0070    4.6440    1.5440 o         1 MOL     -0.487958
     11 C5         -1.8610    2.0960    2.8180 c3        1 MOL      0.050486
     12 C6         -2.9420    1.6040    1.7840 c         1 MOL      0.534326
     13 O3         -4.1820    1.7070    1.9430 o         1 MOL     -0.636924
     14 O4         -2.3980    1.2860    0.6350 o         1 MOL     -0.636924
     15 H4         -0.0620    3.1120    4.1380 hn        1 MOL      0.293803
     16 H5         -0.1420    2.0540    1.4730 h1        1 MOL     -0.014361
     17 H6         -2.2610    2.8220    3.5120 hc        1 MOL     -0.036602
     18 H7         -1.5330    1.1940    3.3480 hc        1 MOL     -0.036602
     19 N2          0.0420    4.5010    0.6460 n         1 MOL     -0.429397
     20 C7          0.0190    5.9060    0.0630 c3        1 MOL     -0.024190
     21 C8         -0.9850    6.1020   -1.1020 c         1 MOL      0.435379
     22 O5         -1.4060    7.2410   -1.3160 o         1 MOL     -0.543532
     23 C9          1.4380    6.3910   -0.3080 c3        1 MOL     -0.219537
     24 C10         2.3960    6.7610    0.7870 c3        1 MOL      0.489168
     25 C11         3.6120    7.5770    0.3760 c3        1 MOL     -0.000211
     26 C12         4.8130    7.6830    1.3150 c3        1 MOL     -0.052170
     27 N3          4.4930    7.9270    2.7350 n4        1 MOL     -0.291581
     28 H8          0.9180    3.9930    0.6150 hn        1 MOL      0.383038
     29 H9         -0.4290    6.5140    0.8510 h1        1 MOL      0.107301
     30 H10         1.1660    7.3250   -0.8000 hc        1 MOL      0.071365
     31 H11         1.9150    5.7480   -1.0610 hc        1 MOL      0.071365
     32 H12         2.6780    5.8230    1.2780 hc        1 MOL     -0.152829
     33 H13         1.8510    7.3110    1.5540 hc        1 MOL     -0.152829
     34 H14         3.1680    8.5480    0.1480 hc        1 MOL     -0.001584
     35 H15         3.9210    7.1820   -0.5960 hc        1 MOL     -0.001584
     36 H16         5.4880    8.4630    0.9560 hx        1 MOL      0.113309
     37 H17         5.3150    6.7160    1.2880 hx        1 MOL      0.113309
     38 H18         5.2310    8.4000    3.2290 hn        1 MOL      0.311970
     39 H19         3.6850    8.5250    2.7610 hn        1 MOL      0.311970
     40 H20         4.1900    7.0830    3.1870 hn        1 MOL      0.311970
     41 N4         -1.3860    4.9760   -1.6840 n         1 MOL     -0.129368
     42 C13        -2.3340    4.8530   -2.7510 c3        1 MOL     -0.122620
     43 C14        -3.6620    4.3310   -2.1890 c         1 MOL      0.468750
     44 O6         -4.6150    4.1250   -2.9350 o         1 MOL     -0.535635
     45 C15        -1.8730    3.8320   -3.7530 c3        1 MOL     -0.126777
     46 C16        -1.6180    2.4470   -3.0370 c         1 MOL      0.602581
     47 O7         -0.6550    2.3560   -2.1730 o         1 MOL     -0.694223
     48 O8         -2.4490    1.5010   -3.1660 o         1 MOL     -0.694223
     49 H21        -0.9550    4.1410   -1.3190 hn        1 MOL      0.128052
     50 H22        -2.4920    5.8340   -3.2130 h1        1 MOL      0.125677
     51 H23        -0.9310    4.0840   -4.2220 hc        1 MOL      0.059423
     52 H24        -2.5680    3.7030   -4.5770 hc        1 MOL      0.059423
     53 N5         -3.8140    4.0960   -0.8770 n         1 MOL     -0.102813
     54 C17        -5.1190    3.9910   -0.2420 c3        1 MOL     -0.299934
     55 C18        -5.9890    2.8280   -0.5720 c         1 MOL      0.596244
     56 O9         -7.1680    2.8140   -0.3460 o         1 MOL     -0.579799
     57 H25        -3.0200    4.1960   -0.2610 hn        1 MOL      0.154792
     58 H26        -5.6750    4.8950   -0.5070 h1        1 MOL      0.130222
     59 H27        -4.9800    3.9140    0.8310 h1        1 MOL      0.130222
     60 N6         -5.4910    1.8540   -1.3420 n         1 MOL     -0.184387
     61 C19        -6.2290    0.6160   -1.6990 c3        1 MOL     -0.056525
     62 C20        -6.4840   -0.2710   -0.4180 c         1 MOL      0.405025
     63 O10        -7.2810   -1.2140   -0.5620 o         1 MOL     -0.532334
     64 C21        -5.4510   -0.1230   -2.9070 c3        1 MOL     -0.261436
     65 C22        -4.2520   -1.0030   -2.6100 c         1 MOL      0.524969
     66 N7         -4.2060   -2.1900   -3.0970 n         1 MOL     -0.658527
     67 O11        -3.4700   -0.7050   -1.7200 o         1 MOL     -0.455179
     68 H28        -4.5730    1.9650   -1.7420 hn        1 MOL      0.167969
     69 H29        -7.2370    0.8850   -2.0160 h1        1 MOL      0.098678
     70 H30        -5.0690    0.6090   -3.6270 hc        1 MOL      0.111953
     71 H31        -6.1450   -0.7620   -3.4580 hc        1 MOL      0.111953
     72 H32        -4.9560   -2.3710   -3.7540 hn        1 MOL      0.331907
     73 H33        -3.3400   -2.6580   -2.8620 hn        1 MOL      0.331907
     74 N8         -5.8710    0.0430    0.6970 n         1 MOL     -0.108008
     75 C23        -6.0460   -0.6950    1.9520 c3        1 MOL     -0.370324
     76 C24        -5.0420   -1.8270    2.1840 c         1 MOL      0.625222
     77 O12        -5.2620   -2.5500    3.1410 o         1 MOL     -0.584958
     78 H34        -5.1990    0.7990    0.6800 hn        1 MOL      0.250728
     79 H35        -6.9890   -1.2360    2.0100 h1        1 MOL      0.160036
     80 H36        -5.9880    0.0540    2.7480 h1        1 MOL      0.160036
     81 N9         -4.0130   -2.0230    1.3320 n         1 MOL     -0.307639
     82 C25        -2.9970   -3.0680    1.5620 c3        1 MOL      0.183881
     83 C26        -1.5270   -2.5800    1.4940 c         1 MOL      0.503450
     84 O13        -1.3100   -1.6370    0.7760 o         1 MOL     -0.616381
     85 C27        -3.1980   -4.2970    0.6470 c3        1 MOL      0.095255
     86 C28        -4.6000   -4.9480    0.5020 ca        1 MOL     -0.124294
     87 C29        -5.2990   -4.6030   -0.6480 ca        1 MOL     -0.021903
     88 C30        -5.0630   -5.9660    1.3740 ca        1 MOL     -0.021903
     89 C31        -6.5470   -5.2470   -0.8540 ca        1 MOL     -0.431587
     90 C32        -6.2730   -6.6510    1.1180 ca        1 MOL     -0.431587
     91 C33        -7.0310   -6.1790    0.0540 ca        1 MOL      0.586623
     92 O14        -8.2000   -6.7800    0.0200 oh        1 MOL     -0.576325
     93 H37        -4.0600   -1.3430    0.5890 hn        1 MOL      0.183666
     94 H38        -3.0800   -3.4690    2.5760 h1        1 MOL     -0.002173
     95 H39        -2.5890   -5.1460    0.9570 hc        1 MOL     -0.044394
     96 H40        -2.8380   -3.9840   -0.3270 hc        1 MOL     -0.044394
     97 H41        -4.8480   -3.8820   -1.3200 ha        1 MOL      0.109697
     98 H42        -4.5460   -6.3480    2.2340 ha        1 MOL      0.109697
     99 H43        -7.1140   -4.9940   -1.7400 ha        1 MOL      0.178260
    100 H44        -6.5640   -7.5420    1.6530 ha        1 MOL      0.178260
    101 H45        -8.4530   -7.0960    0.8910 ho        1 MOL      0.394776
    102 N10        -0.6310   -3.2860    2.2500 n         1 MOL     -0.544386
    103 C34         0.8180   -2.9620    2.1910 c3        1 MOL     -0.019343
    104 C35         1.5570   -3.9810    1.3230 c         1 MOL      0.670341
    105 O15         1.3940   -5.1870    1.5000 o         1 MOL     -0.604243
    106 C36         1.3220   -2.8360    3.6220 c3        1 MOL      0.051648
    107 C37         0.4210   -2.0340    4.5690 c3        1 MOL      0.411035
    108 C38         2.7010   -2.2760    3.6080 c3        1 MOL     -0.805842
    109 C39         0.1500   -0.6260    4.1750 c3        1 MOL     -0.207998
    110 H46        -0.9100   -4.1790    2.6260 hn        1 MOL      0.334396
    111 H47         0.8800   -1.9660    1.7650 h1        1 MOL      0.075171
    112 H48         1.3770   -3.8340    4.0530 hc        1 MOL      0.046970
    113 H49         0.9050   -1.9730    5.5540 hc        1 MOL     -0.100812
    114 H50        -0.4880   -2.5640    4.8370 hc        1 MOL     -0.100812
    115 H51         2.7530   -1.3390    3.0450 hc        1 MOL      0.200591
    116 H52         3.1070   -1.9230    4.5590 hc        1 MOL      0.200591
    117 H53         3.3560   -3.1310    3.4570 hc        1 MOL      0.200591
    118 H54         1.0450   -0.0790    3.8780 hc        1 MOL      0.055466
    119 H55        -0.5350   -0.6460    3.3240 hc        1 MOL      0.055466
    120 H56        -0.2870   -0.0430    4.9880 hc        1 MOL      0.055466
    121 N11         2.4350   -3.4930    0.4660 n         1 MOL     -0.423091
    122 C40         3.2060   -4.2150   -0.5050 c3        1 MOL      0.044136
    123 C41         4.6880   -3.8530   -0.2720 c         1 MOL      0.451146
    124 O16         5.0140   -2.7600    0.1410 o         1 MOL     -0.416181
    125 C42         2.7780   -3.8440   -1.8840 c3        1 MOL     -0.214102
    126 O17         3.1260   -2.4170   -2.2090 oh        1 MOL     -0.596080
    127 H57         2.2950   -2.5120    0.2610 hn        1 MOL      0.349095
    128 H58         3.0560   -5.2810   -0.4090 h1        1 MOL      0.063133
    129 H59         1.6980   -3.9980   -1.9330 h1        1 MOL      0.142387
    130 H60         3.2420   -4.5200   -2.5960 h1        1 MOL      0.142387
    131 H61         2.5150   -1.7960   -1.8100 ho        1 MOL      0.430497
    132 N12         5.5870   -4.8290   -0.5970 n         1 MOL     -0.457949
    133 C43         7.0450   -4.7250   -0.5020 c3        1 MOL      0.158721
    134 C44         7.5630   -3.4220   -1.1600 c         1 MOL      0.549904
    135 O18         8.5850   -2.9080   -0.6770 o         1 MOL     -0.528096
    136 C45         7.7490   -5.9620   -1.0520 c3        1 MOL     -0.328956
    137 H62         5.1730   -5.7060   -0.8900 hn        1 MOL      0.284027
    138 H63         7.4030   -4.6290    0.5190 h1        1 MOL      0.066000
    139 H64         7.9800   -5.9820   -2.1280 hc        1 MOL      0.101185
    140 H65         8.7100   -6.1230   -0.5490 hc        1 MOL      0.101185
    141 H66         7.0390   -6.7850   -0.9670 hc        1 MOL      0.101185
    142 N13         6.9550   -2.9810   -2.2980 n         1 MOL     -0.490531
    143 C46         7.3700   -1.8070   -3.0540 c3        1 MOL      0.059953
    144 C47         7.0840   -0.4300   -2.3060 c         1 MOL      0.439388
    145 O19         7.8270    0.4760   -2.4350 o         1 MOL     -0.524358
    146 C48         6.5970   -1.7910   -4.3400 c3        1 MOL     -0.124935
    147 H67         6.2600   -3.5900   -2.7140 hn        1 MOL      0.283808
    148 H68         8.4460   -1.8080   -3.2250 h1        1 MOL      0.086387
    149 H69         5.5830   -1.4130   -4.1780 hc        1 MOL      0.040100
    150 H70         7.1130   -1.1260   -5.0210 hc        1 MOL      0.040100
    151 H71         6.5110   -2.7150   -4.9090 hc        1 MOL      0.040100
    152 N14         6.0440   -0.3990   -1.4870 n         1 MOL     -0.220454
    153 C49         5.5850    0.7590   -0.6420 c3        1 MOL     -0.027535
    154 C50         6.1050    0.6260    0.8260 c         1 MOL      0.520215
    155 O20         6.3240    1.6460    1.4870 o         1 MOL     -0.581140
    156 C51         4.0450    0.8260   -0.8100 c3        1 MOL     -0.059287
    157 C52         3.2010    0.0770    0.2870 c3        1 MOL     -0.031108
    158 C53         1.7430    0.0200    0.0060 c         1 MOL      0.714067
    159 O21         1.2830   -1.1160   -0.4290 o         1 MOL     -0.677746
    160 O22         1.1430    1.0610   -0.1580 o         1 MOL     -0.677746
    161 H72         5.3830   -1.1560   -1.5420 hn        1 MOL      0.257160
    162 H73         5.9800    1.7020   -1.0290 h1        1 MOL      0.098989
    163 H74         3.8260    0.4010   -1.7900 hc        1 MOL      0.013191
    164 H75         3.8180    1.8930   -0.7880 hc        1 MOL      0.013191
    165 H76         3.4680    0.4060    1.2950 hc        1 MOL     -0.004943
    166 H77         3.4490   -0.9690    0.1260 hc        1 MOL     -0.004943
    167 N15         6.4520   -0.5580    1.3020 n         1 MOL     -0.170508
    168 C54         7.3390   -0.6980    2.4680 c3        1 MOL     -0.402585
    169 H78         8.3780   -0.6580    2.1420 h1        1 MOL      0.145212
    170 H79         7.1470    0.1140    3.1700 h1        1 MOL      0.145212
    171 H80         7.1490   -1.6530    2.9570 h1        1 MOL      0.145212
    172 H81         6.2820   -1.4200    0.8040 hn        1 MOL      0.184052
    173 Ca1        -0.9730   -0.0440   -1.2430 Ca        1 MOL      1.704821
    174 O23         0.2840   -0.4470   -3.6120 oh        1 MOL     -0.863093
    175 H82         1.0760   -0.8230   -4.0040 ho        1 MOL      0.420101
    176 H83        -0.1300    0.0360   -4.3300 ho        1 MOL      0.420101
    177 O24        -1.2170   -2.5280   -1.9380 oh        1 MOL     -0.863093
    178 H84        -1.3380   -3.3720   -1.4930 ho        1 MOL      0.420101
    179 H85        -0.8690   -2.7630   -2.8010 ho        1 MOL      0.420101
@<TRIPOS>BOND
     1    1    2 1   
     2    1    4 1   
     3    1    5 1   
     4    1    6 1   
     5    2    3 2   
     6    2    7 1   
     7    7    8 1   
     8    7   15 1   
     9    8    9 1   
    10    8   11 1   
    11    8   16 1   
    12    9   10 2   
    13    9   19 1   
    14   11   12 1   
    15   11   17 1   
    16   11   18 1   
    17   12   13 1   
    18   12   14 1   
    19   19   20 1   
    20   19   28 1   
    21   20   21 1   
    22   20   23 1   
    23   20   29 1   
    24   21   22 2   
    25   21   41 1   
    26   23   24 1   
    27   23   30 1   
    28   23   31 1   
    29   24   25 1   
    30   24   32 1   
    31   24   33 1   
    32   25   26 1   
    33   25   34 1   
    34   25   35 1   
    35   26   27 1   
    36   26   36 1   
    37   26   37 1   
    38   27   38 1   
    39   27   39 1   
    40   27   40 1   
    41   41   42 1   
    42   41   49 1   
    43   42   43 1   
    44   42   45 1   
    45   42   50 1   
    46   43   44 2   
    47   43   53 1   
    48   45   46 1   
    49   45   51 1   
    50   45   52 1   
    51   46   47 1   
    52   46   48 1   
    53   53   54 1   
    54   53   57 1   
    55   54   55 1   
    56   54   58 1   
    57   54   59 1   
    58   55   56 2   
    59   55   60 1   
    60   60   61 1   
    61   60   68 1   
    62   61   62 1   
    63   61   64 1   
    64   61   69 1   
    65   62   63 2   
    66   62   74 1   
    67   64   65 1   
    68   64   70 1   
    69   64   71 1   
    70   65   66 1   
    71   65   67 2   
    72   66   72 1   
    73   66   73 1   
    74   74   75 1   
    75   74   78 1   
    76   75   76 1   
    77   75   79 1   
    78   75   80 1   
    79   76   77 2   
    80   76   81 1   
    81   81   82 1   
    82   81   93 1   
    83   82   83 1   
    84   82   85 1   
    85   82   94 1   
    86   83   84 2   
    87   83  102 1   
    88   85   86 1   
    89   85   95 1   
    90   85   96 1   
    91   86   87 ar  
    92   86   88 ar  
    93   87   89 ar  
    94   87   97 1   
    95   88   90 ar  
    96   88   98 1   
    97   89   91 ar  
    98   89   99 1   
    99   90   91 ar  
   100   90  100 1   
   101   91   92 1   
   102   92  101 1   
   103  102  103 1   
   104  102  110 1   
   105  103  104 1   
   106  103  106 1   
   107  103  111 1   
   108  104  105 2   
   109  104  121 1   
   110  106  107 1   
   111  106  108 1   
   112  106  112 1   
   113  107  109 1   
   114  107  113 1   
   115  107  114 1   
   116  108  115 1   
   117  108  116 1   
   118  108  117 1   
   119  109  118 1   
   120  109  119 1   
   121  109  120 1   
   122  121  122 1   
   123  121  127 1   
   124  122  123 1   
   125  122  125 1   
   126  122  128 1   
   127  123  124 2   
   128  123  132 1   
   129  125  126 1   
   130  125  129 1   
   131  125  130 1   
   132  126  131 1   
   133  132  133 1   
   134  132  137 1   
   135  133  134 1   
   136  133  136 1   
   137  133  138 1   
   138  134  135 2   
   139  134  142 1   
   140  136  139 1   
   141  136  140 1   
   142  136  141 1   
   143  142  143 1   
   144  142  147 1   
   145  143  144 1   
   146  143  146 1   
   147  143  148 1   
   148  144  145 2   
   149  144  152 1   
   150  146  149 1   
   151  146  150 1   
   152  146  151 1   
   153  152  153 1   
   154  152  161 1   
   155  153  154 1   
   156  153  156 1   
   157  153  162 1   
   158  154  155 2   
   159  154  167 1   
   160  156  157 1   
   161  156  163 1   
   162  156  164 1   
   163  157  158 1   
   164  157  165 1   
   165  157  166 1   
   166  158  159 1   
   167  158  160 1   
   168  167  168 1   
   169  167  172 1   
   170  168  169 1   
   171  168  170 1   
   172  168  171 1   
   173  174  175 1   
   174  174  176 1   
   175  177  178 1   
   176  177  179 1   
@<TRIPOS>SUBSTRUCTURE
     1 MOL         1 TEMP              0 ****  ****    0 ROOT
