@<TRIPOS>MOLECULE
MOL
  186   183     1     0     0
SMALL
resp


@<TRIPOS>ATOM
      1 C1          0.8640   -2.1670    6.4160 c3        1 MOL     -0.341737
      2 C2          1.1670   -2.3180    4.9120 c         1 MOL      0.819446
      3 O1          0.3850   -2.8830    4.1810 o         1 MOL     -0.632347
      4 H1         -0.0610   -2.6900    6.6530 hc        1 MOL      0.077536
      5 H2          1.6820   -2.5940    6.9960 hc        1 MOL      0.077536
      6 H3          0.7560   -1.1100    6.6610 hc        1 MOL      0.077536
      7 N1          2.3140   -1.8190    4.4430 n         1 MOL     -0.717658
      8 C3          2.7140   -1.6380    3.0430 c3        1 MOL      0.419357
      9 C4          3.2450   -2.9040    2.3780 c         1 MOL      0.481481
     10 O2          4.3630   -3.3380    2.6240 o         1 MOL     -0.524741
     11 C5          3.6770   -0.5220    3.0530 c3        1 MOL     -0.258148
     12 C6          4.3330   -0.1600    1.7190 c         1 MOL      0.674251
     13 O3          5.4790    0.3850    1.7210 o         1 MOL     -0.671174
     14 O4          3.7690   -0.4450    0.5960 o         1 MOL     -0.671174
     15 H4          2.7870   -1.1890    5.0640 hn        1 MOL      0.310457
     16 H5          1.8990   -1.2830    2.4090 h1        1 MOL     -0.006507
     17 H6          4.5870   -0.7280    3.6250 hc        1 MOL      0.045745
     18 H7          3.2540    0.3970    3.4370 hc        1 MOL      0.045745
     19 N2          2.3690   -3.4370    1.5490 n         1 MOL     -0.267567
     20 C7          2.4880   -4.8420    1.1370 c3        1 MOL     -0.192551
     21 C8          3.5540   -5.0280    0.0520 c         1 MOL      0.494065
     22 O5          4.4300   -5.9150    0.2290 o         1 MOL     -0.556742
     23 C9          1.1600   -5.5340    0.7890 c3        1 MOL      0.292933
     24 C10         0.1940   -5.5230    1.9550 c3        1 MOL      0.101493
     25 C11         1.3680   -7.0130    0.2880 c3        1 MOL     -0.378364
     26 C12        -1.2630   -5.8180    1.6420 c3        1 MOL     -0.080338
     27 H8          1.4270   -3.0790    1.5470 hn        1 MOL      0.132096
     28 H9          2.8990   -5.3400    2.0250 h1        1 MOL      0.091394
     29 H10         0.7460   -5.0090   -0.0730 hc        1 MOL     -0.021884
     30 H11         0.1270   -4.5250    2.3950 hc        1 MOL     -0.025427
     31 H12         0.5690   -6.1940    2.7240 hc        1 MOL     -0.025427
     32 H13         0.3920   -7.4360    0.0680 hc        1 MOL      0.082169
     33 H14         1.9600   -7.0460   -0.6220 hc        1 MOL      0.082169
     34 H15         1.9750   -7.5750    0.9870 hc        1 MOL      0.082169
     35 H16        -1.8500   -5.6500    2.5390 hc        1 MOL      0.008355
     36 H17        -1.5980   -5.2650    0.7720 hc        1 MOL      0.008355
     37 H18        -1.2340   -6.8760    1.3780 hc        1 MOL      0.008355
     38 N3          3.5480   -4.2840   -1.1000 n         1 MOL     -0.351108
     39 C13         4.5930   -4.3040   -2.1540 c3        1 MOL      0.039717
     40 C14         5.7560   -3.3520   -1.8610 c         1 MOL      0.331720
     41 O6          6.7910   -3.3380   -2.5750 o         1 MOL     -0.542621
     42 C15         3.9090   -3.8660   -3.4840 c3        1 MOL     -0.162246
     43 C16         3.1950   -2.4660   -3.3880 c         1 MOL      0.788842
     44 O7          2.5070   -2.2190   -4.4150 o         1 MOL     -0.690326
     45 O8          3.4000   -1.7080   -2.4020 o         1 MOL     -0.690326
     46 H19         2.8980   -3.5090   -1.1230 hn        1 MOL      0.223172
     47 H20         4.9470   -5.3240   -2.2620 h1        1 MOL      0.089335
     48 H21         3.1410   -4.6120   -3.6740 hc        1 MOL      0.035687
     49 H22         4.5780   -3.9570   -4.3360 hc        1 MOL      0.035687
     50 N4          5.6440   -2.6890   -0.7060 n         1 MOL      0.082070
     51 C17         6.7340   -2.1330   -0.0120 c3        1 MOL     -0.330572
     52 C18         7.3200   -0.7810   -0.5100 c         1 MOL      0.629739
     53 O9          8.5140   -0.4530   -0.3340 o         1 MOL     -0.639838
     54 H23         4.7240   -2.5850   -0.3070 hn        1 MOL      0.071303
     55 H24         7.4980   -2.8880   -0.1990 h1        1 MOL      0.116805
     56 H25         6.5780   -2.1560    1.0690 h1        1 MOL      0.116805
     57 N5          6.5840   -0.0160   -1.3090 n         1 MOL     -0.356025
     58 C19         7.0790    1.2100   -1.9380 c3        1 MOL      0.130998
     59 C20         7.1900    2.4100   -0.9630 c         1 MOL      0.346672
     60 O10         7.5690    3.5370   -1.3770 o         1 MOL     -0.554937
     61 C21         6.0980    1.5360   -3.1410 c3        1 MOL     -0.458906
     62 C22         4.6200    1.5260   -2.7160 c         1 MOL      0.805296
     63 O11         3.7650    1.0760   -3.5110 o         1 MOL     -0.715162
     64 O12         4.2940    1.7880   -1.5810 o         1 MOL     -0.715162
     65 H26         5.5800   -0.1160   -1.2670 hn        1 MOL      0.254391
     66 H27         8.0260    1.1980   -2.4900 h1        1 MOL      0.084763
     67 H28         6.3090    0.7330   -3.8530 hc        1 MOL      0.114153
     68 H29         6.4110    2.4930   -3.5340 hc        1 MOL      0.114153
     69 N6          6.8800    2.1540    0.3470 n         1 MOL     -0.208438
     70 C23         6.8920    3.0200    1.4800 c3        1 MOL     -0.080592
     71 C24         5.6300    3.8930    1.5890 c         1 MOL      0.438906
     72 O13         5.6610    4.9690    2.1950 o         1 MOL     -0.587437
     73 H30         6.4760    1.2510    0.5320 hn        1 MOL      0.256725
     74 H31         7.7620    3.6790    1.5380 h1        1 MOL      0.077250
     75 H32         7.0580    2.4440    2.3900 h1        1 MOL      0.077250
     76 N7          4.5080    3.5210    0.9900 n         1 MOL     -0.205842
     77 C25         3.1880    4.0930    1.2100 c3        1 MOL     -0.031421
     78 C26         2.0380    3.0440    1.3290 c         1 MOL      0.372762
     79 O14         2.0970    1.9340    0.7570 o         1 MOL     -0.488015
     80 C27         2.8750    5.0360    0.1260 c3        1 MOL      0.090080
     81 C28         3.7990    6.3070    0.1180 c3        1 MOL     -0.269547
     82 C29         3.0520    7.4310   -0.6700 c         1 MOL      0.658768
     83 N8          2.6370    7.2240   -1.9100 n         1 MOL     -0.852642
     84 O15         2.8230    8.5530   -0.1770 o         1 MOL     -0.597876
     85 H33         4.6120    2.6760    0.4440 hn        1 MOL      0.256990
     86 H34         3.1320    4.7250    2.0990 h1        1 MOL      0.067084
     87 H35         1.8820    5.4550    0.2820 hc        1 MOL      0.003714
     88 H36         2.9330    4.4300   -0.7780 hc        1 MOL      0.003714
     89 H37         4.6380    6.0170   -0.5180 hc        1 MOL      0.101727
     90 H38         4.2170    6.5870    1.0810 hc        1 MOL      0.101727
     91 H39         2.8250    6.3130   -2.3150 hn        1 MOL      0.388317
     92 H40         2.1450    7.9940   -2.3070 hn        1 MOL      0.388317
     93 N9          0.8830    3.4930    1.8850 n         1 MOL     -0.298911
     94 C30        -0.3120    2.6550    1.9550 c3        1 MOL      0.054746
     95 C31        -1.2970    3.1170    0.8960 c         1 MOL      0.273056
     96 O16        -1.7330    4.2660    1.0550 o         1 MOL     -0.526102
     97 C32        -0.9470    2.6350    3.4200 c3        1 MOL      0.349712
     98 C33        -1.7070    1.3470    3.7860 c3        1 MOL     -0.309592
     99 C34         0.1550    2.8280    4.4890 c3        1 MOL     -0.309592
    100 H41         0.9070    4.3980    2.3260 hn        1 MOL      0.271551
    101 H42        -0.2390    1.5750    1.7810 h1        1 MOL      0.031930
    102 H43        -1.6220    3.4880    3.5020 hc        1 MOL     -0.048588
    103 H44        -2.2010    1.5900    4.7210 hc        1 MOL      0.054359
    104 H45        -2.5200    1.1290    3.0920 hc        1 MOL      0.054359
    105 H46        -1.1570    0.4130    3.8780 hc        1 MOL      0.054359
    106 H47         0.6970    1.8800    4.5970 hc        1 MOL      0.054359
    107 H48         0.8420    3.6510    4.3100 hc        1 MOL      0.054359
    108 H49        -0.3770    3.0550    5.4120 hc        1 MOL      0.054359
    109 N10        -1.5440    2.3590   -0.1830 n         1 MOL     -0.222528
    110 C35        -2.6720    2.4790   -1.0330 c3        1 MOL      0.085040
    111 C36        -3.9640    2.0170   -0.3490 c         1 MOL      0.409734
    112 O17        -3.9610    1.3550    0.6830 o         1 MOL     -0.316665
    113 C37        -2.4450    1.7000   -2.3550 c3        1 MOL     -0.372614
    114 C38        -3.5140    1.9470   -3.4060 c         1 MOL      0.688212
    115 N11        -3.7160    0.9670   -4.1450 n         1 MOL     -0.694996
    116 O18        -4.2790    2.8820   -3.4420 o         1 MOL     -0.585465
    117 H50        -0.9920    1.5380   -0.3910 hn        1 MOL      0.306992
    118 H51        -2.7280    3.5230   -1.3450 h1        1 MOL      0.054752
    119 H52        -2.3280    0.6750   -2.0350 hc        1 MOL      0.125400
    120 H53        -1.5080    1.9040   -2.8720 hc        1 MOL      0.125400
    121 H54        -3.1230    0.1550   -4.1430 hn        1 MOL      0.353710
    122 H55        -4.4360    0.8600   -4.8460 hn        1 MOL      0.353710
    123 N12        -5.1550    2.2850   -0.9090 n         1 MOL     -0.485641
    124 C39        -6.4230    1.8810   -0.3750 c3        1 MOL      0.192246
    125 C40        -6.7530    0.3890   -0.1840 c         1 MOL      0.690661
    126 O19        -7.1110   -0.0540    0.8860 o         1 MOL     -0.548056
    127 C41        -7.5350    2.4740   -1.2980 c3        1 MOL     -0.186358
    128 C42        -8.9810    2.1280   -0.8010 ca        1 MOL     -0.002005
    129 C43        -9.4350    2.7220    0.3970 ca        1 MOL     -0.186546
    130 C44        -9.7360    1.1320   -1.3980 ca        1 MOL     -0.186546
    131 C45       -10.7330    2.4120    0.8820 ca        1 MOL     -0.205599
    132 C46       -10.9610    0.7350   -0.7580 ca        1 MOL     -0.205599
    133 C47       -11.4970    1.4080    0.3230 ca        1 MOL      0.322557
    134 O20       -12.7010    1.1510    0.7680 oh        1 MOL     -0.496029
    135 H56        -5.1160    2.7550   -1.8060 hn        1 MOL      0.255308
    136 H57        -6.6020    2.3090    0.6100 h1        1 MOL      0.041214
    137 H58        -7.3010    2.0930   -2.2900 hc        1 MOL      0.075954
    138 H59        -7.4180    3.5560   -1.3000 hc        1 MOL      0.075954
    139 H60        -8.8530    3.4490    0.9270 ha        1 MOL      0.143494
    140 H61        -9.3710    0.6340   -2.2820 ha        1 MOL      0.143494
    141 H62       -11.2130    2.9300    1.7010 ha        1 MOL      0.116954
    142 H63       -11.5200   -0.0800   -1.1760 ha        1 MOL      0.116954
    143 H64       -13.0380    0.3270    0.3880 ho        1 MOL      0.366985
    144 N13        -6.4920   -0.5740   -1.1290 n         1 MOL     -0.458025
    145 C48        -6.5530   -2.0280   -0.8590 c3        1 MOL     -0.098707
    146 C49        -5.4910   -2.3810    0.2200 c         1 MOL      0.411452
    147 O21        -5.5950   -3.4280    0.8930 o         1 MOL     -0.541086
    148 C50        -6.4380   -2.8820   -2.0860 c3        1 MOL      0.124824
    149 C51        -5.1870   -2.5890   -2.9310 c3        1 MOL     -0.295857
    150 C52        -4.9430   -3.3950   -4.2230 c         1 MOL      0.859300
    151 O22        -4.0350   -4.1750   -4.3300 o         1 MOL     -0.765155
    152 O23        -5.6210   -3.1530   -5.2480 o         1 MOL     -0.765155
    153 H65        -5.9640   -0.2660   -1.9380 hn        1 MOL      0.289747
    154 H66        -7.5360   -2.2050   -0.4090 h1        1 MOL      0.102755
    155 H67        -7.2650   -2.7810   -2.7870 hc        1 MOL     -0.002507
    156 H68        -6.5440   -3.9530   -1.8790 hc        1 MOL     -0.002507
    157 H69        -4.3510   -2.8670   -2.2860 hc        1 MOL     -0.021508
    158 H70        -5.2440   -1.5360   -3.2000 hc        1 MOL     -0.021508
    159 N14        -4.4370   -1.6070    0.5020 n         1 MOL     -0.139018
    160 C53        -3.5410   -1.8800    1.6020 c3        1 MOL     -0.015107
    161 C54        -4.2580   -1.5000    2.9980 c         1 MOL      0.425341
    162 O24        -4.0350   -2.1180    4.0060 o         1 MOL     -0.534876
    163 C55        -2.1380   -1.2870    1.4850 c3        1 MOL      0.207193
    164 C56        -1.3050   -2.0100    0.4820 c3        1 MOL     -0.537067
    165 C57        -0.1300   -1.2170   -0.1480 c         1 MOL      0.642770
    166 O25         0.7640   -1.8470   -0.7290 o         1 MOL     -0.702979
    167 O26        -0.0280    0.0110   -0.0590 o         1 MOL     -0.702979
    168 H71        -4.3020   -0.7440   -0.0150 hn        1 MOL      0.105802
    169 H72        -3.2760   -2.9340    1.7190 h1        1 MOL      0.053681
    170 H73        -1.6090   -1.4160    2.4370 hc        1 MOL      0.041058
    171 H74        -2.1880   -0.2170    1.2950 hc        1 MOL      0.041058
    172 H75        -1.8520   -2.3810   -0.3840 hc        1 MOL      0.217621
    173 H76        -0.8590   -2.8410    1.0230 hc        1 MOL      0.217621
    174 N15        -5.0270   -0.3660    2.8990 n         1 MOL      0.012229
    175 C58        -5.6470    0.2920    4.0620 c3        1 MOL     -0.270980
    176 H77        -6.7220    0.1090    4.0530 h1        1 MOL      0.085856
    177 H78        -5.2180   -0.1120    4.9800 h1        1 MOL      0.085856
    178 H79        -5.4610    1.3650    4.0150 h1        1 MOL      0.085856
    179 H80        -5.1620    0.0830    2.0000 hn        1 MOL     -0.017532
    180 Ca1         2.2330    0.2530   -1.2270 Ca        1 MOL      1.612766
    181 O27         1.3330    2.4680   -2.4330 oh        1 MOL     -0.838105
    182 H81         0.6160    2.4630   -3.0700 ho        1 MOL      0.393770
    183 H82         1.9110    3.1790   -2.7240 ho        1 MOL      0.393770
    184 O28         0.6940   -0.3080   -3.4920 oh        1 MOL     -0.838105
    185 H83         1.2780   -0.9620   -3.8870 ho        1 MOL      0.393770
    186 H84        -0.1720   -0.5380   -3.8230 ho        1 MOL      0.393770
@<TRIPOS>BOND
     1    1    2 1   
     2    1    4 1   
     3    1    5 1   
     4    1    6 1   
     5    2    3 2   
     6    2    7 1   
     7    7    8 1   
     8    7   15 1   
     9    8    9 1   
    10    8   11 1   
    11    8   16 1   
    12    9   10 2   
    13    9   19 1   
    14   11   12 1   
    15   11   17 1   
    16   11   18 1   
    17   12   13 1   
    18   12   14 1   
    19   19   20 1   
    20   19   27 1   
    21   20   21 1   
    22   20   23 1   
    23   20   28 1   
    24   21   22 2   
    25   21   38 1   
    26   23   24 1   
    27   23   25 1   
    28   23   29 1   
    29   24   26 1   
    30   24   30 1   
    31   24   31 1   
    32   25   32 1   
    33   25   33 1   
    34   25   34 1   
    35   26   35 1   
    36   26   36 1   
    37   26   37 1   
    38   38   39 1   
    39   38   46 1   
    40   39   40 1   
    41   39   42 1   
    42   39   47 1   
    43   40   41 2   
    44   40   50 1   
    45   42   43 1   
    46   42   48 1   
    47   42   49 1   
    48   43   44 1   
    49   43   45 1   
    50   50   51 1   
    51   50   54 1   
    52   51   52 1   
    53   51   55 1   
    54   51   56 1   
    55   52   53 2   
    56   52   57 1   
    57   57   58 1   
    58   57   65 1   
    59   58   59 1   
    60   58   61 1   
    61   58   66 1   
    62   59   60 2   
    63   59   69 1   
    64   61   62 1   
    65   61   67 1   
    66   61   68 1   
    67   62   63 1   
    68   62   64 1   
    69   69   70 1   
    70   69   73 1   
    71   70   71 1   
    72   70   74 1   
    73   70   75 1   
    74   71   72 2   
    75   71   76 1   
    76   76   77 1   
    77   76   85 1   
    78   77   78 1   
    79   77   80 1   
    80   77   86 1   
    81   78   79 2   
    82   78   93 1   
    83   80   81 1   
    84   80   87 1   
    85   80   88 1   
    86   81   82 1   
    87   81   89 1   
    88   81   90 1   
    89   82   83 1   
    90   82   84 2   
    91   83   91 1   
    92   83   92 1   
    93   93   94 1   
    94   93  100 1   
    95   94   95 1   
    96   94   97 1   
    97   94  101 1   
    98   95   96 2   
    99   95  109 1   
   100   97   98 1   
   101   97   99 1   
   102   97  102 1   
   103   98  103 1   
   104   98  104 1   
   105   98  105 1   
   106   99  106 1   
   107   99  107 1   
   108   99  108 1   
   109  109  110 1   
   110  109  117 1   
   111  110  111 1   
   112  110  113 1   
   113  110  118 1   
   114  111  112 2   
   115  111  123 1   
   116  113  114 1   
   117  113  119 1   
   118  113  120 1   
   119  114  115 1   
   120  114  116 2   
   121  115  121 1   
   122  115  122 1   
   123  123  124 1   
   124  123  135 1   
   125  124  125 1   
   126  124  127 1   
   127  124  136 1   
   128  125  126 2   
   129  125  144 1   
   130  127  128 1   
   131  127  137 1   
   132  127  138 1   
   133  128  129 ar  
   134  128  130 ar  
   135  129  131 ar  
   136  129  139 1   
   137  130  132 ar  
   138  130  140 1   
   139  131  133 ar  
   140  131  141 1   
   141  132  133 ar  
   142  132  142 1   
   143  133  134 1   
   144  134  143 1   
   145  144  145 1   
   146  144  153 1   
   147  145  146 1   
   148  145  148 1   
   149  145  154 1   
   150  146  147 2   
   151  146  159 1   
   152  148  149 1   
   153  148  155 1   
   154  148  156 1   
   155  149  150 1   
   156  149  157 1   
   157  149  158 1   
   158  150  151 1   
   159  150  152 1   
   160  159  160 1   
   161  159  168 1   
   162  160  161 1   
   163  160  163 1   
   164  160  169 1   
   165  161  162 2   
   166  161  174 1   
   167  163  164 1   
   168  163  170 1   
   169  163  171 1   
   170  164  165 1   
   171  164  172 1   
   172  164  173 1   
   173  165  166 1   
   174  165  167 1   
   175  174  175 1   
   176  174  179 1   
   177  175  176 1   
   178  175  177 1   
   179  175  178 1   
   180  181  182 1   
   181  181  183 1   
   182  184  185 1   
   183  184  186 1   
@<TRIPOS>SUBSTRUCTURE
     1 MOL         1 TEMP              0 ****  ****    0 ROOT
