@<TRIPOS>MOLECULE
MOL
  175   173     1     0     0
SMALL
resp


@<TRIPOS>ATOM
      1 C1          0.3550    3.5850    5.5920 c3        1 MOL     -0.346474
      2 C2         -0.2660    3.7200    4.1750 c         1 MOL      0.785490
      3 O1          0.4740    4.1880    3.3720 o         1 MOL     -0.560889
      4 H1          1.3960    3.2750    5.5040 hc        1 MOL      0.072716
      5 H2          0.3050    4.5460    6.1040 hc        1 MOL      0.072716
      6 H3         -0.1990    2.8400    6.1630 hc        1 MOL      0.072716
      7 N1         -1.5440    3.4360    3.9640 n         1 MOL     -0.738451
      8 C3         -2.2170    3.4380    2.6460 c3        1 MOL      0.192138
      9 C4         -2.1780    4.7920    1.9060 c         1 MOL      0.646700
     10 O2         -2.2760    5.8550    2.5220 o         1 MOL     -0.566882
     11 C5         -3.6400    3.0860    2.9830 c3        1 MOL     -0.265961
     12 C6         -4.3280    2.7890    1.6250 c         1 MOL      0.654972
     13 O3         -5.4100    3.3140    1.4040 o         1 MOL     -0.609312
     14 O4         -3.7130    2.0780    0.8110 o         1 MOL     -0.609312
     15 H4         -2.1200    3.1470    4.7460 hn        1 MOL      0.343426
     16 H5         -1.6480    2.7170    2.0690 h1        1 MOL      0.057178
     17 H6         -4.1370    3.8370    3.5840 hc        1 MOL      0.048773
     18 H7         -3.5500    2.1040    3.4470 hc        1 MOL      0.048773
     19 N2         -2.1550    4.7110    0.5710 n         1 MOL     -0.656801
     20 C7         -2.5300    5.7660   -0.3640 c3        1 MOL      0.504839
     21 C8         -3.4330    5.1960   -1.5150 c         1 MOL      0.302714
     22 O5         -3.5610    5.9410   -2.4690 o         1 MOL     -0.548269
     23 C9         -1.2090    6.4620   -0.8580 c3        1 MOL     -0.221349
     24 H8         -1.8980    3.8120    0.2130 hn        1 MOL      0.299782
     25 H9         -3.0870    6.5710    0.1190 h1        1 MOL     -0.020786
     26 H10        -0.5240    5.7270   -1.2990 hc        1 MOL      0.048408
     27 H11        -1.4020    7.2720   -1.5640 hc        1 MOL      0.048408
     28 H12        -0.8020    6.9770    0.0110 hc        1 MOL      0.048408
     29 N3         -4.0310    3.9640   -1.4870 n         1 MOL     -0.119458
     30 C10        -4.8890    3.4300   -2.5280 c3        1 MOL      0.073898
     31 C11        -6.0840    2.6200   -2.1440 c         1 MOL      0.228513
     32 O6         -6.9760    2.3730   -3.0240 o         1 MOL     -0.554983
     33 C12        -4.0420    2.5610   -3.4450 c3        1 MOL     -0.199713
     34 C13        -3.3250    1.5310   -2.7230 c         1 MOL      0.691908
     35 O7         -3.9100    0.6140   -2.1020 o         1 MOL     -0.691223
     36 O8         -2.1180    1.5490   -2.6500 o         1 MOL     -0.691223
     37 H13        -4.0120    3.5570   -0.5670 hn        1 MOL      0.070227
     38 H14        -5.2500    4.2910   -3.1100 h1        1 MOL      0.088474
     39 H15        -3.4080    3.2730   -3.9760 hc        1 MOL      0.057979
     40 H16        -4.6560    2.1900   -4.2670 hc        1 MOL      0.057979
     41 N4         -6.2400    2.1210   -0.9470 n         1 MOL      0.073154
     42 C14        -7.3410    1.2560   -0.5310 c3        1 MOL     -0.294529
     43 C15        -7.4330   -0.1370   -1.1550 c         1 MOL      0.545455
     44 O9         -8.4830   -0.7460   -1.1620 o         1 MOL     -0.592248
     45 H17        -5.6040    2.4580   -0.2370 hn        1 MOL      0.058219
     46 H18        -8.2610    1.7690   -0.8220 h1        1 MOL      0.114282
     47 H19        -7.3480    1.2300    0.5600 h1        1 MOL      0.114282
     48 N5         -6.2980   -0.7060   -1.6520 n         1 MOL     -0.245645
     49 C16        -6.1450   -2.0740   -2.1630 c3        1 MOL      0.023617
     50 C17        -6.2620   -3.2390   -1.1270 c         1 MOL      0.381696
     51 O10        -6.3020   -4.3780   -1.5690 o         1 MOL     -0.501087
     52 C18        -4.9300   -2.2470   -3.1050 c3        1 MOL     -0.507200
     53 C19        -3.5970   -2.0980   -2.4520 c         1 MOL      0.498010
     54 N6         -2.5300   -1.9560   -3.2100 n         1 MOL     -0.644022
     55 O11        -3.4440   -2.0600   -1.2470 o         1 MOL     -0.122824
     56 H20        -5.4260   -0.2030   -1.5290 hn        1 MOL      0.202953
     57 H21        -7.0750   -2.2490   -2.7140 h1        1 MOL      0.111966
     58 H22        -4.9720   -1.3380   -3.7070 hc        1 MOL      0.162081
     59 H23        -4.9410   -3.2560   -3.4960 hc        1 MOL      0.162081
     60 H24        -2.6810   -1.7200   -4.1720 hn        1 MOL      0.331825
     61 H25        -1.5970   -1.7940   -2.8370 hn        1 MOL      0.331825
     62 N7         -6.3070   -2.8730    0.1740 n         1 MOL     -0.193801
     63 C20        -6.1440   -3.7860    1.3010 c3        1 MOL     -0.160408
     64 C21        -4.7990   -4.5000    1.4040 c         1 MOL      0.600588
     65 O12        -4.8080   -5.4920    2.1100 o         1 MOL     -0.604618
     66 H26        -6.2710   -1.8840    0.3100 hn        1 MOL      0.162742
     67 H27        -6.9150   -4.5500    1.2360 h1        1 MOL      0.081670
     68 H28        -6.2330   -3.3470    2.2940 h1        1 MOL      0.081670
     69 N8         -3.7200   -4.0150    0.8040 n         1 MOL     -0.071031
     70 C22        -2.4260   -4.6580    0.9300 c3        1 MOL     -0.604182
     71 C23        -1.3670   -3.5650    1.1040 c         1 MOL      0.869651
     72 O13        -1.5450   -2.5630    0.4500 o         1 MOL     -0.673051
     73 C24        -2.1270   -5.5990   -0.2130 c3        1 MOL      0.604565
     74 C25        -2.8860   -6.9150   -0.0610 c3        1 MOL     -0.469917
     75 O14        -2.4730   -5.0740   -1.4770 oh        1 MOL     -0.588646
     76 H29        -3.7690   -3.1010    0.3770 hn        1 MOL      0.036530
     77 H30        -2.4540   -5.2910    1.8170 h1        1 MOL      0.154562
     78 H31        -1.0710   -5.8430   -0.2560 h1        1 MOL     -0.033301
     79 H32        -2.2080   -4.1540   -1.5110 ho        1 MOL      0.310526
     80 H33        -2.3540   -7.5410   -0.7760 hc        1 MOL      0.117195
     81 H34        -2.7240   -7.3150    0.9530 hc        1 MOL      0.117195
     82 H35        -3.8930   -6.6340   -0.3440 hc        1 MOL      0.117195
     83 N9         -0.3510   -3.7850    1.9390 n         1 MOL     -0.593328
     84 C26         0.8620   -2.9850    2.1010 c3        1 MOL      0.080814
     85 C27         1.7320   -3.1910    0.8080 c         1 MOL      0.540235
     86 O15         2.0440   -4.3050    0.4690 o         1 MOL     -0.581059
     87 C28         1.6540   -3.2430    3.4110 c3        1 MOL      0.149347
     88 C29         0.7480   -2.8630    4.6870 c3        1 MOL      0.113599
     89 C30         3.0260   -2.5070    3.3840 c3        1 MOL     -0.190265
     90 C31         1.2470   -3.5120    5.9320 c3        1 MOL     -0.053908
     91 H36        -0.4550   -4.5580    2.5840 hn        1 MOL      0.299500
     92 H37         0.5700   -1.9370    2.0970 h1        1 MOL     -0.092882
     93 H38         1.8760   -4.3030    3.3320 hc        1 MOL     -0.038712
     94 H39        -0.2930   -3.0450    4.4380 hc        1 MOL     -0.027926
     95 H40         0.9170   -1.8010    4.8460 hc        1 MOL     -0.027926
     96 H41         2.8320   -1.4410    3.5440 hc        1 MOL      0.045185
     97 H42         3.6250   -2.8520    4.2240 hc        1 MOL      0.045185
     98 H43         3.5620   -2.6580    2.4490 hc        1 MOL      0.045185
     99 H44         0.8010   -2.9590    6.7600 hc        1 MOL     -0.002040
    100 H45         0.8470   -4.5270    5.9820 hc        1 MOL     -0.002040
    101 H46         2.3270   -3.5720    5.9840 hc        1 MOL     -0.002040
    102 N10         2.0590   -2.0900    0.1390 n         1 MOL     -0.195332
    103 C32         2.7810   -1.9730   -1.1260 c3        1 MOL      0.018837
    104 C33         4.2550   -1.5680   -0.8190 c         1 MOL      0.365903
    105 O16         4.5820   -1.1250    0.2720 o         1 MOL     -0.244673
    106 C34         2.0970   -1.0120   -2.0840 c3        1 MOL     -0.376330
    107 C35         0.6490   -1.4430   -2.3660 c         1 MOL      0.849255
    108 O17        -0.3010   -0.8320   -1.8340 o         1 MOL     -0.723319
    109 O18         0.3750   -2.1870   -3.3210 o         1 MOL     -0.723319
    110 H47         1.6960   -1.2250    0.4950 hn        1 MOL      0.190439
    111 H48         2.7270   -2.9160   -1.6700 h1        1 MOL      0.066594
    112 H49         2.6770   -0.8310   -2.9890 hc        1 MOL      0.117396
    113 H50         1.9130    0.0040   -1.7380 hc        1 MOL      0.117396
    114 N11         5.1750   -1.7370   -1.7180 n         1 MOL     -0.565162
    115 C36         6.5650   -1.4210   -1.4210 c3        1 MOL      0.373173
    116 C37         6.8660    0.0880   -1.0200 c         1 MOL      0.283168
    117 O19         7.6420    0.3960   -0.0950 o         1 MOL     -0.467433
    118 C38         7.4370   -1.8780   -2.5260 c3        1 MOL     -0.259192
    119 C39         8.9120   -1.4420   -2.2880 ca        1 MOL      0.172110
    120 C40         9.5720   -1.8810   -1.1150 ca        1 MOL     -0.274493
    121 C41         9.5150   -0.5380   -3.1660 ca        1 MOL     -0.274493
    122 C42        10.8420   -1.3420   -0.8750 ca        1 MOL      0.023754
    123 C43        10.8200   -0.0520   -2.9210 ca        1 MOL      0.023754
    124 C44        11.4700   -0.5470   -1.7970 ca        1 MOL     -0.246897
    125 H51         4.9670   -2.0890   -2.6420 hn        1 MOL      0.330262
    126 H52         6.7170   -2.0450   -0.5440 h1        1 MOL      0.045791
    127 H53         7.1160   -1.5000   -3.4930 hc        1 MOL      0.073541
    128 H54         7.4990   -2.9670   -2.5800 hc        1 MOL      0.073541
    129 H55         9.0930   -2.6000   -0.4780 ha        1 MOL      0.139966
    130 H56         8.9470   -0.1750   -4.0170 ha        1 MOL      0.139966
    131 H57        11.2870   -1.5900    0.0760 ha        1 MOL      0.085775
    132 H58        11.2950    0.6130   -3.6260 ha        1 MOL      0.085775
    133 H59        12.4310   -0.1630   -1.5020 ha        1 MOL      0.121223
    134 N12         6.2940    1.0520   -1.7580 n         1 MOL      0.025000
    135 C45         6.3020    2.5000   -1.4450 c3        1 MOL     -0.078014
    136 C46         5.4800    2.8320   -0.1380 c         1 MOL      0.418535
    137 O20         5.4660    3.9850    0.3110 o         1 MOL     -0.517754
    138 C47         6.0210    3.2500   -2.7650 c3        1 MOL     -0.057884
    139 C48         5.1070    2.3010   -3.4820 c3        1 MOL      0.003076
    140 C49         5.7040    0.9580   -3.0920 c3        1 MOL      0.014707
    141 H60         7.3280    2.7150   -1.1870 h1        1 MOL      0.071090
    142 H61         5.5010    4.1710   -2.5010 hc        1 MOL      0.046539
    143 H62         6.9510    3.4920   -3.2940 hc        1 MOL      0.046539
    144 H63         4.0910    2.2890   -3.0730 hc        1 MOL      0.031777
    145 H64         5.0760    2.5780   -4.5410 hc        1 MOL      0.031777
    146 H65         4.8960    0.2400   -3.1740 h1        1 MOL     -0.015307
    147 H66         6.4920    0.6490   -3.7910 h1        1 MOL     -0.015307
    148 N13         4.7580    1.8640    0.4400 n         1 MOL     -0.164648
    149 C50         4.1860    1.8810    1.8230 c3        1 MOL      0.012854
    150 C51         4.9180    1.1210    2.8950 c         1 MOL      0.427192
    151 O21         5.0070    1.6100    4.0470 o         1 MOL     -0.557039
    152 C52         2.7610    1.2730    1.7310 c3        1 MOL      0.042497
    153 C53         1.9080    1.9060    0.6130 c3        1 MOL     -0.096244
    154 C54         0.4490    1.3130    0.5540 c         1 MOL      0.547474
    155 O22         0.2960    0.1320    0.9630 o         1 MOL     -0.656773
    156 O23        -0.5050    1.9590    0.0770 o         1 MOL     -0.656773
    157 H67         4.7510    0.9180    0.0870 hn        1 MOL      0.074472
    158 H68         4.0760    2.8900    2.2210 h1        1 MOL      0.084931
    159 H69         2.3050    1.3740    2.7150 hc        1 MOL      0.018003
    160 H70         2.8910    0.2340    1.4290 hc        1 MOL      0.018003
    161 H71         2.4170    1.7520   -0.3300 hc        1 MOL      0.051812
    162 H72         1.8910    2.9920    0.6900 hc        1 MOL      0.051812
    163 N14         5.5880    0.0230    2.5440 n         1 MOL     -0.147856
    164 C55         6.4380   -0.8140    3.4450 c3        1 MOL     -0.104884
    165 H73         7.4460   -0.8770    3.0360 h1        1 MOL      0.062319
    166 H74         6.4750   -0.3600    4.4350 h1        1 MOL      0.062319
    167 H75         6.0140   -1.8150    3.5200 h1        1 MOL      0.062319
    168 H76         5.4110   -0.3380    1.6180 hn        1 MOL      0.020043
    169 Ca1        -2.1820    0.0080   -0.1910 Ca        1 MOL      1.625338
    170 O24        -4.4340   -0.5630    1.3310 oh        1 MOL     -0.756856
    171 H77        -4.5550    0.3170    0.9850 ho        1 MOL      0.375697
    172 H78        -4.8070   -0.5310    2.2090 ho        1 MOL      0.375697
    173 O25        -1.8450   -0.0530    2.4660 oh        1 MOL     -0.756856
    174 H79        -1.9420    0.1680    3.3960 ho        1 MOL      0.375697
    175 H80        -0.9000    0.0160    2.3030 ho        1 MOL      0.375697
@<TRIPOS>BOND
     1    1    2 1   
     2    1    4 1   
     3    1    5 1   
     4    1    6 1   
     5    2    3 2   
     6    2    7 1   
     7    7    8 1   
     8    7   15 1   
     9    8    9 1   
    10    8   11 1   
    11    8   16 1   
    12    9   10 2   
    13    9   19 1   
    14   11   12 1   
    15   11   17 1   
    16   11   18 1   
    17   12   13 1   
    18   12   14 1   
    19   19   20 1   
    20   19   24 1   
    21   20   21 1   
    22   20   23 1   
    23   20   25 1   
    24   21   22 2   
    25   21   29 1   
    26   23   26 1   
    27   23   27 1   
    28   23   28 1   
    29   29   30 1   
    30   29   37 1   
    31   30   31 1   
    32   30   33 1   
    33   30   38 1   
    34   31   32 2   
    35   31   41 1   
    36   33   34 1   
    37   33   39 1   
    38   33   40 1   
    39   34   35 1   
    40   34   36 1   
    41   41   42 1   
    42   41   45 1   
    43   42   43 1   
    44   42   46 1   
    45   42   47 1   
    46   43   44 2   
    47   43   48 1   
    48   48   49 1   
    49   48   56 1   
    50   49   50 1   
    51   49   52 1   
    52   49   57 1   
    53   50   51 2   
    54   50   62 1   
    55   52   53 1   
    56   52   58 1   
    57   52   59 1   
    58   53   54 1   
    59   53   55 2   
    60   54   60 1   
    61   54   61 1   
    62   62   63 1   
    63   62   66 1   
    64   63   64 1   
    65   63   67 1   
    66   63   68 1   
    67   64   65 2   
    68   64   69 1   
    69   69   70 1   
    70   69   76 1   
    71   70   71 1   
    72   70   73 1   
    73   70   77 1   
    74   71   72 2   
    75   71   83 1   
    76   73   74 1   
    77   73   75 1   
    78   73   78 1   
    79   74   80 1   
    80   74   81 1   
    81   74   82 1   
    82   75   79 1   
    83   83   84 1   
    84   83   91 1   
    85   84   85 1   
    86   84   87 1   
    87   84   92 1   
    88   85   86 2   
    89   85  102 1   
    90   87   88 1   
    91   87   89 1   
    92   87   93 1   
    93   88   90 1   
    94   88   94 1   
    95   88   95 1   
    96   89   96 1   
    97   89   97 1   
    98   89   98 1   
    99   90   99 1   
   100   90  100 1   
   101   90  101 1   
   102  102  103 1   
   103  102  110 1   
   104  103  104 1   
   105  103  106 1   
   106  103  111 1   
   107  104  105 2   
   108  104  114 1   
   109  106  107 1   
   110  106  112 1   
   111  106  113 1   
   112  107  108 1   
   113  107  109 1   
   114  114  115 1   
   115  114  125 1   
   116  115  116 1   
   117  115  118 1   
   118  115  126 1   
   119  116  117 2   
   120  116  134 1   
   121  118  119 1   
   122  118  127 1   
   123  118  128 1   
   124  119  120 ar  
   125  119  121 ar  
   126  120  122 ar  
   127  120  129 1   
   128  121  123 ar  
   129  121  130 1   
   130  122  124 ar  
   131  122  131 1   
   132  123  124 ar  
   133  123  132 1   
   134  124  133 1   
   135  134  135 1   
   136  134  140 1   
   137  135  136 1   
   138  135  138 1   
   139  135  141 1   
   140  136  137 2   
   141  136  148 1   
   142  138  139 1   
   143  138  142 1   
   144  138  143 1   
   145  139  140 1   
   146  139  144 1   
   147  139  145 1   
   148  140  146 1   
   149  140  147 1   
   150  148  149 1   
   151  148  157 1   
   152  149  150 1   
   153  149  152 1   
   154  149  158 1   
   155  150  151 2   
   156  150  163 1   
   157  152  153 1   
   158  152  159 1   
   159  152  160 1   
   160  153  154 1   
   161  153  161 1   
   162  153  162 1   
   163  154  155 1   
   164  154  156 1   
   165  163  164 1   
   166  163  168 1   
   167  164  165 1   
   168  164  166 1   
   169  164  167 1   
   170  170  171 1   
   171  170  172 1   
   172  173  174 1   
   173  173  175 1   
@<TRIPOS>SUBSTRUCTURE
     1 MOL         1 TEMP              0 ****  ****    0 ROOT
