@<TRIPOS>MOLECULE
MOL
  172   171     1     0     0
SMALL
resp


@<TRIPOS>ATOM
      1 C1         -0.5990   -4.0560    5.7310 c3        1 MOL     -0.378959
      2 C2         -0.0750   -3.8280    4.3280 c         1 MOL      0.705208
      3 O1         -0.8480   -4.0630    3.4080 o         1 MOL     -0.550675
      4 H1          0.1500   -3.7340    6.4550 hc        1 MOL      0.089981
      5 H2         -1.5140   -3.4820    5.8750 hc        1 MOL      0.089981
      6 H3         -0.8080   -5.1160    5.8740 hc        1 MOL      0.089981
      7 N1          1.1650   -3.3470    4.1740 n         1 MOL     -0.602393
      8 C3          1.7310   -3.1730    2.8440 c3        1 MOL      0.321038
      9 C4          2.0080   -4.4850    2.0230 c         1 MOL      0.372351
     10 O2          2.3970   -5.5180    2.5360 o         1 MOL     -0.545485
     11 C5          3.0800   -2.4350    2.9910 c3        1 MOL     -0.384639
     12 C6          3.9880   -2.5250    1.7860 c         1 MOL      0.729783
     13 O3          5.1460   -3.0850    1.7880 o         1 MOL     -0.670817
     14 O4          3.5550   -1.9590    0.8010 o         1 MOL     -0.670817
     15 H4          1.7090   -3.0110    4.9600 hn        1 MOL      0.327245
     16 H5          1.0560   -2.5460    2.2570 h1        1 MOL      0.013071
     17 H6          3.6010   -2.9960    3.7660 hc        1 MOL      0.055910
     18 H7          2.9000   -1.4100    3.3120 hc        1 MOL      0.055910
     19 N2          1.9250   -4.3720    0.6950 n         1 MOL     -0.154939
     20 C7          2.1950   -5.4100   -0.2950 c3        1 MOL      0.298945
     21 C8          3.0900   -5.0500   -1.5350 c         1 MOL      0.539800
     22 O5          3.0370   -5.7770   -2.5420 o         1 MOL     -0.564086
     23 C9          0.9310   -6.1750   -0.5590 c3        1 MOL     -0.287213
     24 H8          1.6000   -3.4720    0.3960 hn        1 MOL      0.089719
     25 H9          2.9140   -6.1140    0.1270 h1        1 MOL     -0.001367
     26 H10         1.1830   -7.0530   -1.1690 hc        1 MOL      0.058107
     27 H11         0.5170   -6.5330    0.3840 hc        1 MOL      0.058107
     28 H12         0.2300   -5.6390   -1.2050 hc        1 MOL      0.058107
     29 N3          4.0180   -4.0580   -1.4340 n         1 MOL     -0.425274
     30 C10         4.9580   -3.6420   -2.4890 c3        1 MOL      0.023448
     31 C11         6.2000   -2.7690   -2.0950 c         1 MOL      0.411634
     32 O6          7.1470   -2.6630   -2.8480 o         1 MOL     -0.543966
     33 C12         4.2000   -2.7920   -3.5250 c3        1 MOL     -0.296113
     34 C13         3.4530   -1.6470   -2.8400 c         1 MOL      0.736522
     35 O7          2.2050   -1.5600   -2.9490 o         1 MOL     -0.713857
     36 O8          4.0340   -0.8050   -2.1700 o         1 MOL     -0.713857
     37 H13         4.0020   -3.5820   -0.5490 hn        1 MOL      0.186149
     38 H14         5.2990   -4.4550   -3.1290 h1        1 MOL      0.102886
     39 H15         3.4220   -3.4640   -3.9030 hc        1 MOL      0.092157
     40 H16         4.8900   -2.3870   -4.2550 hc        1 MOL      0.092157
     41 N4          6.2380   -2.1640   -0.8880 n         1 MOL     -0.183865
     42 C14         7.4740   -1.4270   -0.4500 c3        1 MOL     -0.152826
     43 C15         7.4390    0.0750   -0.7950 c         1 MOL      0.417105
     44 O9          8.4750    0.7120   -0.7100 o         1 MOL     -0.573532
     45 H17         5.4330   -2.2070   -0.2900 hn        1 MOL      0.187940
     46 H18         8.3920   -1.8660   -0.8390 h1        1 MOL      0.113983
     47 H19         7.5590   -1.5410    0.6330 h1        1 MOL      0.113983
     48 N5          6.3290    0.7020   -1.3250 n         1 MOL     -0.015156
     49 C16         6.2840    2.0850   -1.7700 c3        1 MOL     -0.110535
     50 C17         6.1910    3.1370   -0.6340 c         1 MOL      0.419070
     51 O10         6.5100    4.3150   -0.8680 o         1 MOL     -0.520039
     52 C18         5.2710    2.2390   -2.9450 c3        1 MOL     -0.227629
     53 C19         3.8300    2.1160   -2.4580 c         1 MOL      0.600806
     54 N6          2.8680    1.9150   -3.3210 n         1 MOL     -0.710739
     55 O11         3.5480    2.2850   -1.2970 o         1 MOL     -0.319566
     56 H20         5.5230    0.1060   -1.4580 hn        1 MOL      0.073878
     57 H21         7.2920    2.0550   -2.1910 h1        1 MOL      0.127354
     58 H22         5.4960    1.4460   -3.6500 hc        1 MOL      0.083543
     59 H23         5.4290    3.2090   -3.4250 hc        1 MOL      0.083543
     60 H24         3.1580    1.4770   -4.1850 hn        1 MOL      0.333825
     61 H25         1.8980    1.8140   -3.0380 hn        1 MOL      0.333825
     62 N7          5.9610    2.7820    0.6320 n         1 MOL     -0.153459
     63 C20         6.0570    3.6910    1.7910 c3        1 MOL     -0.283011
     64 C21         4.8040    4.4740    2.0560 c         1 MOL      0.540635
     65 O12         4.8180    5.3510    2.9500 o         1 MOL     -0.574240
     66 H26         5.5870    1.8610    0.8070 hn        1 MOL      0.114376
     67 H27         6.8350    4.4090    1.5060 h1        1 MOL      0.140222
     68 H28         6.4300    3.1070    2.6330 h1        1 MOL      0.140222
     69 N8          3.7120    4.0890    1.4110 n         1 MOL     -0.211561
     70 C22         2.4740    4.8620    1.3180 c3        1 MOL     -0.269235
     71 C23         1.3220    3.8810    1.2400 c         1 MOL      0.690386
     72 O13         1.4670    2.8400    0.5660 o         1 MOL     -0.441719
     73 C24         2.3340    5.7160    0.0150 c3        1 MOL      0.519391
     74 C25         3.3170    6.8750   -0.0690 c3        1 MOL     -0.438405
     75 O14         2.4660    4.9680   -1.1630 oh        1 MOL     -0.547711
     76 H29         3.8000    3.2550    0.8410 hn        1 MOL      0.142547
     77 H30         2.3690    5.5120    2.1850 h1        1 MOL      0.109459
     78 H31         1.3160    6.0950    0.0560 h1        1 MOL     -0.044557
     79 H32         2.3750    4.0460   -0.9000 ho        1 MOL      0.232823
     80 H33         3.1480    7.4630   -0.9660 hc        1 MOL      0.109615
     81 H34         3.1700    7.5290    0.8020 hc        1 MOL      0.109615
     82 H35         4.3360    6.5070   -0.1090 hc        1 MOL      0.109615
     83 N9          0.1460    4.0820    1.9120 n         1 MOL     -0.794728
     84 C26        -0.9540    3.0240    1.8470 c3        1 MOL      0.075246
     85 C27        -1.5820    3.2130    0.4560 c         1 MOL      0.687837
     86 O15        -2.1200    4.2950    0.1800 o         1 MOL     -0.622826
     87 C28        -2.0110    3.0560    2.9980 c3        1 MOL      0.092775
     88 C29        -1.4520    3.5530    4.3890 c3        1 MOL      0.352523
     89 C30        -2.6140    1.7160    3.2380 c3        1 MOL     -0.281469
     90 C31        -2.5270    3.8410    5.4350 c3        1 MOL     -0.281110
     91 H36        -0.0420    5.0000    2.2940 hn        1 MOL      0.375184
     92 H37        -0.4830    2.0490    1.8740 h1        1 MOL      0.108977
     93 H38        -2.8800    3.6920    2.7730 hc        1 MOL     -0.017077
     94 H39        -0.9590    4.5120    4.2120 hc        1 MOL     -0.085605
     95 H40        -0.7270    2.8430    4.7660 hc        1 MOL     -0.085605
     96 H41        -2.9060    1.2820    2.2790 hc        1 MOL      0.066042
     97 H42        -1.9260    1.0460    3.7500 hc        1 MOL      0.066042
     98 H43        -3.4560    1.7460    3.9340 hc        1 MOL      0.066042
     99 H44        -3.1610    4.6590    5.0860 hc        1 MOL      0.049884
    100 H45        -3.0370    2.8990    5.6510 hc        1 MOL      0.049884
    101 H46        -1.9940    4.1880    6.3120 hc        1 MOL      0.049884
    102 N10        -1.7430    2.0810   -0.1950 n         1 MOL     -0.224283
    103 C32        -2.6210    1.8010   -1.4160 c3        1 MOL      0.099822
    104 C33        -3.9820    1.2770   -1.0480 c         1 MOL      0.409393
    105 O16        -4.0920    0.5440   -0.0380 o         1 MOL     -0.281896
    106 C34        -1.8990    0.8860   -2.4090 c3        1 MOL     -0.211515
    107 C35        -0.4920    1.2560   -2.8900 c         1 MOL      0.680263
    108 O17        -0.3670    1.7800   -4.0320 o         1 MOL     -0.647979
    109 O18         0.5060    1.0180   -2.1160 o         1 MOL     -0.647979
    110 H47        -1.1880    1.2810    0.0760 hn        1 MOL     -0.236531
    111 H48        -2.7380    2.7290   -1.9810 h1        1 MOL      0.045717
    112 H49        -2.5270    0.6910   -3.2850 hc        1 MOL      0.085230
    113 H50        -1.7620   -0.0100   -1.7920 hc        1 MOL      0.085230
    114 N11        -4.9910    1.6170   -1.8130 n         1 MOL     -0.670638
    115 C36        -6.3430    1.2380   -1.4790 c3        1 MOL      0.443937
    116 C37        -6.6810   -0.2450   -1.2100 c         1 MOL      0.231043
    117 O19        -7.4380   -0.4260   -0.2550 o         1 MOL     -0.464463
    118 C38        -7.3360    1.8830   -2.4480 c3        1 MOL     -0.317841
    119 C39        -8.7710    1.7610   -2.0690 ca        1 MOL      0.185559
    120 C40        -9.6210    1.1350   -2.9480 ca        1 MOL     -0.160725
    121 C41        -9.3090    2.3980   -0.9450 ca        1 MOL     -0.160725
    122 C42       -10.9880    1.0950   -2.7280 ca        1 MOL     -0.146421
    123 C43       -10.6960    2.3490   -0.7200 ca        1 MOL     -0.146421
    124 C44       -11.5670    1.7050   -1.5950 ca        1 MOL     -0.081078
    125 H51        -4.8350    2.2560   -2.5760 hn        1 MOL      0.347713
    126 H52        -6.5130    1.7540   -0.5260 h1        1 MOL      0.058935
    127 H53        -7.1940    1.4350   -3.4350 hc        1 MOL      0.075974
    128 H54        -7.1830    2.9550   -2.4960 hc        1 MOL      0.075974
    129 H55        -9.2380    0.7890   -3.9030 ha        1 MOL      0.112062
    130 H56        -8.6760    2.7640   -0.1510 ha        1 MOL      0.112062
    131 H57       -11.5610    0.5090   -3.4260 ha        1 MOL      0.114510
    132 H58       -11.0300    2.8260    0.1960 ha        1 MOL      0.114510
    133 H59       -12.6340    1.6830   -1.4600 ha        1 MOL      0.095186
    134 N12        -5.9910   -1.2420   -1.8110 n         1 MOL     -0.041331
    135 C45        -5.9960   -2.6510   -1.3530 c3        1 MOL      0.032457
    136 C46        -5.4700   -2.8270    0.1060 c         1 MOL      0.239665
    137 O20        -5.8920   -3.6700    0.8730 o         1 MOL     -0.493481
    138 C47        -5.1280   -3.4290   -2.3520 c3        1 MOL     -0.099481
    139 C48        -5.1890   -2.6060   -3.6320 c3        1 MOL     -0.061894
    140 C49        -5.2450   -1.2400   -3.0450 c3        1 MOL      0.044875
    141 H60        -7.0140   -2.9710   -1.5770 h1        1 MOL      0.054901
    142 H61        -4.0810   -3.3750   -2.0500 hc        1 MOL      0.080459
    143 H62        -5.2950   -4.5020   -2.3750 hc        1 MOL      0.080459
    144 H63        -4.3700   -2.7540   -4.3390 hc        1 MOL      0.031043
    145 H64        -6.1230   -2.6830   -4.1880 hc        1 MOL      0.031043
    146 H65        -4.1910   -0.9660   -2.9890 h1        1 MOL      0.019427
    147 H66        -5.6690   -0.6340   -3.8560 h1        1 MOL      0.019427
    148 N13        -4.3290   -2.2920    0.4610 n         1 MOL     -0.006437
    149 C50        -3.7190   -2.3170    1.7670 c3        1 MOL     -0.045378
    150 C51        -4.5230   -1.6750    2.9150 c         1 MOL      0.365557
    151 O21        -4.5480   -2.1600    4.0630 o         1 MOL     -0.538538
    152 C52        -2.3390   -1.7010    1.7150 c3        1 MOL     -0.158253
    153 C53        -1.5500   -2.1190    0.4770 c3        1 MOL      0.108565
    154 C54        -0.2610   -1.4210    0.3290 c         1 MOL      0.399351
    155 O22         0.5430   -2.0350   -0.3580 o         1 MOL     -0.573208
    156 O23        -0.0570   -0.2640    0.8200 o         1 MOL     -0.573208
    157 H67        -3.7840   -1.8520   -0.2680 hn        1 MOL      0.051455
    158 H68        -3.6530   -3.3330    2.1660 h1        1 MOL      0.105748
    159 H69        -1.7550   -1.7700    2.6400 hc        1 MOL      0.083214
    160 H70        -2.4470   -0.6210    1.5840 hc        1 MOL      0.083214
    161 H71        -2.1470   -1.9990   -0.4350 hc        1 MOL      0.012214
    162 H72        -1.3520   -3.1890    0.5270 hc        1 MOL      0.012214
    163 N14        -5.2750   -0.6300    2.5450 n         1 MOL      0.084259
    164 C55        -6.2040    0.0860    3.4370 c3        1 MOL     -0.218430
    165 H73        -5.7120    0.2830    4.3900 h1        1 MOL      0.075827
    166 H74        -6.4950    1.0300    2.9770 h1        1 MOL      0.075827
    167 H75        -7.0900   -0.5250    3.6050 h1        1 MOL      0.075827
    168 H76        -5.1420   -0.3110    1.5920 hn        1 MOL     -0.009558
    169 Ca1         2.2430    0.0080   -0.5250 Ca        1 MOL      1.723738
    170 O24         3.5520    0.9380    1.4930 oh        1 MOL     -1.087469
    171 H77         4.4670    0.9370    1.7880 ho        1 MOL      0.502830
    172 H78         3.0400    0.9200    2.2970 ho        1 MOL      0.502830
@<TRIPOS>BOND
     1    1    2 1   
     2    1    4 1   
     3    1    5 1   
     4    1    6 1   
     5    2    3 2   
     6    2    7 1   
     7    7    8 1   
     8    7   15 1   
     9    8    9 1   
    10    8   11 1   
    11    8   16 1   
    12    9   10 2   
    13    9   19 1   
    14   11   12 1   
    15   11   17 1   
    16   11   18 1   
    17   12   13 1   
    18   12   14 1   
    19   19   20 1   
    20   19   24 1   
    21   20   21 1   
    22   20   23 1   
    23   20   25 1   
    24   21   22 2   
    25   21   29 1   
    26   23   26 1   
    27   23   27 1   
    28   23   28 1   
    29   29   30 1   
    30   29   37 1   
    31   30   31 1   
    32   30   33 1   
    33   30   38 1   
    34   31   32 2   
    35   31   41 1   
    36   33   34 1   
    37   33   39 1   
    38   33   40 1   
    39   34   35 1   
    40   34   36 1   
    41   41   42 1   
    42   41   45 1   
    43   42   43 1   
    44   42   46 1   
    45   42   47 1   
    46   43   44 2   
    47   43   48 1   
    48   48   49 1   
    49   48   56 1   
    50   49   50 1   
    51   49   52 1   
    52   49   57 1   
    53   50   51 2   
    54   50   62 1   
    55   52   53 1   
    56   52   58 1   
    57   52   59 1   
    58   53   54 1   
    59   53   55 2   
    60   54   60 1   
    61   54   61 1   
    62   62   63 1   
    63   62   66 1   
    64   63   64 1   
    65   63   67 1   
    66   63   68 1   
    67   64   65 2   
    68   64   69 1   
    69   69   70 1   
    70   69   76 1   
    71   70   71 1   
    72   70   73 1   
    73   70   77 1   
    74   71   72 2   
    75   71   83 1   
    76   73   74 1   
    77   73   75 1   
    78   73   78 1   
    79   74   80 1   
    80   74   81 1   
    81   74   82 1   
    82   75   79 1   
    83   83   84 1   
    84   83   91 1   
    85   84   85 1   
    86   84   87 1   
    87   84   92 1   
    88   85   86 2   
    89   85  102 1   
    90   87   88 1   
    91   87   89 1   
    92   87   93 1   
    93   88   90 1   
    94   88   94 1   
    95   88   95 1   
    96   89   96 1   
    97   89   97 1   
    98   89   98 1   
    99   90   99 1   
   100   90  100 1   
   101   90  101 1   
   102  102  103 1   
   103  102  110 1   
   104  103  104 1   
   105  103  106 1   
   106  103  111 1   
   107  104  105 2   
   108  104  114 1   
   109  106  107 1   
   110  106  112 1   
   111  106  113 1   
   112  107  108 1   
   113  107  109 1   
   114  114  115 1   
   115  114  125 1   
   116  115  116 1   
   117  115  118 1   
   118  115  126 1   
   119  116  117 2   
   120  116  134 1   
   121  118  119 1   
   122  118  127 1   
   123  118  128 1   
   124  119  120 ar  
   125  119  121 ar  
   126  120  122 ar  
   127  120  129 1   
   128  121  123 ar  
   129  121  130 1   
   130  122  124 ar  
   131  122  131 1   
   132  123  124 ar  
   133  123  132 1   
   134  124  133 1   
   135  134  135 1   
   136  134  140 1   
   137  135  136 1   
   138  135  138 1   
   139  135  141 1   
   140  136  137 2   
   141  136  148 1   
   142  138  139 1   
   143  138  142 1   
   144  138  143 1   
   145  139  140 1   
   146  139  144 1   
   147  139  145 1   
   148  140  146 1   
   149  140  147 1   
   150  148  149 1   
   151  148  157 1   
   152  149  150 1   
   153  149  152 1   
   154  149  158 1   
   155  150  151 2   
   156  150  163 1   
   157  152  153 1   
   158  152  159 1   
   159  152  160 1   
   160  153  154 1   
   161  153  161 1   
   162  153  162 1   
   163  154  155 1   
   164  154  156 1   
   165  163  164 1   
   166  163  168 1   
   167  164  165 1   
   168  164  166 1   
   169  164  167 1   
   170  170  171 1   
   171  170  172 1   
@<TRIPOS>SUBSTRUCTURE
     1 MOL         1 TEMP              0 ****  ****    0 ROOT
