@<TRIPOS>MOLECULE
MOL
  182   178     1     0     0
SMALL
resp


@<TRIPOS>ATOM
      1 C1         -1.0870   -2.8910    6.4500 c3        1 MOL     -0.290323
      2 C2         -0.8940   -2.5260    4.9370 c         1 MOL      0.726309
      3 O1         -1.9070   -2.5390    4.2100 o         1 MOL     -0.577822
      4 H1         -1.7460   -3.7560    6.5330 hc        1 MOL      0.068627
      5 H2         -0.1210   -3.1270    6.8940 hc        1 MOL      0.068627
      6 H3         -1.5320   -2.0450    6.9750 hc        1 MOL      0.068627
      7 N1          0.3650   -2.2650    4.5660 n         1 MOL     -0.615217
      8 C3          0.7970   -2.2490    3.1570 c3        1 MOL      0.056306
      9 C4          0.8430   -3.6660    2.4850 c         1 MOL      0.511135
     10 O2          1.3770   -4.6760    2.9650 o         1 MOL     -0.522852
     11 C5          2.2010   -1.5870    3.2090 c3        1 MOL     -0.343736
     12 C6          2.7920   -1.1990    1.8480 c         1 MOL      0.986521
     13 O3          2.2960   -1.6700    0.8430 o         1 MOL     -0.843654
     14 O4          3.8390   -0.4700    1.8640 o         1 MOL     -0.843654
     15 H4          1.0780   -2.4210    5.2590 hn        1 MOL      0.346871
     16 H5          0.1170   -1.6670    2.5440 h1        1 MOL      0.030369
     17 H6          2.9320   -2.2950    3.6080 hc        1 MOL      0.091839
     18 H7          2.1640   -0.6160    3.7080 hc        1 MOL      0.091839
     19 N2          0.3340   -3.6200    1.2520 n         1 MOL     -0.109299
     20 C7          0.0090   -4.8690    0.5020 c3        1 MOL     -0.474487
     21 C8          1.3300   -5.4960   -0.1260 c         1 MOL      0.598874
     22 O5          1.4380   -6.7230   -0.1720 o         1 MOL     -0.558077
     23 C9         -1.1670   -4.6270   -0.5350 c3        1 MOL      0.316121
     24 C10        -1.9420   -5.8970   -0.8630 c3        1 MOL     -0.722058
     25 C11        -3.3240   -5.5440   -1.3610 c3        1 MOL      0.346066
     26 C12        -4.2080   -6.7840   -1.5530 c3        1 MOL     -0.135950
     27 N3         -3.9290   -7.4900   -2.8800 n4        1 MOL     -0.368432
     28 H8          0.0870   -2.7540    0.8130 hn        1 MOL      0.056359
     29 H9         -0.3910   -5.5050    1.2830 h1        1 MOL      0.193923
     30 H10        -0.8070   -4.1410   -1.4370 hc        1 MOL      0.032569
     31 H11        -1.8380   -3.9410   -0.0160 hc        1 MOL      0.032569
     32 H12        -2.1670   -6.3300    0.1140 hc        1 MOL      0.208474
     33 H13        -1.3840   -6.5730   -1.5120 hc        1 MOL      0.208474
     34 H14        -3.2750   -5.0890   -2.3510 hc        1 MOL     -0.023494
     35 H15        -3.7910   -4.8210   -0.6970 hc        1 MOL     -0.023494
     36 H16        -5.2270   -6.3980   -1.6550 hx        1 MOL      0.134502
     37 H17        -4.2020   -7.4480   -0.6830 hx        1 MOL      0.134502
     38 H18        -3.0760   -8.0340   -2.8410 hn        1 MOL      0.330533
     39 H19        -4.6670   -8.1330   -3.1010 hn        1 MOL      0.330533
     40 H20        -3.9110   -6.8520   -3.6560 hn        1 MOL      0.330533
     41 N4          2.2190   -4.6340   -0.6290 n         1 MOL     -0.383671
     42 C13         3.5060   -4.9360   -1.2820 c3        1 MOL      0.020912
     43 C14         4.7060   -4.4220   -0.4700 c         1 MOL      0.486085
     44 O6          5.8480   -4.8440   -0.7410 o         1 MOL     -0.551200
     45 C15         3.5260   -4.4930   -2.7950 c3        1 MOL     -0.188581
     46 C16         3.6570   -2.9930   -2.9620 c         1 MOL      0.653800
     47 O7          3.1460   -2.2710   -2.0570 o         1 MOL     -0.670107
     48 O8          4.1040   -2.5340   -4.0530 o         1 MOL     -0.670107
     49 H21         1.9760   -3.6530   -0.6960 hn        1 MOL      0.348542
     50 H22         3.6800   -6.0110   -1.3430 h1        1 MOL      0.085692
     51 H23         2.6280   -4.9150   -3.2400 hc        1 MOL      0.057824
     52 H24         4.3500   -4.9880   -3.3040 hc        1 MOL      0.057824
     53 N5          4.4860   -3.6320    0.5690 n         1 MOL     -0.252790
     54 C17         5.5560   -3.2060    1.4230 c3        1 MOL     -0.125235
     55 C18         6.4320   -2.0660    0.8130 c         1 MOL      0.471211
     56 O9          7.5670   -1.8790    1.2760 o         1 MOL     -0.553699
     57 H25         3.5990   -3.1630    0.6280 hn        1 MOL      0.174969
     58 H26         6.2850   -4.0040    1.5720 h1        1 MOL      0.108072
     59 H27         5.1830   -2.9620    2.4170 h1        1 MOL      0.108072
     60 N6          5.9510   -1.3180   -0.2000 n         1 MOL     -0.165045
     61 C19         6.5460   -0.1000   -0.8210 c3        1 MOL     -0.163332
     62 C20         6.6300    1.1830    0.0030 c         1 MOL      0.469075
     63 O10         7.2940    2.1090   -0.4430 o         1 MOL     -0.499254
     64 C21         5.9210    0.0320   -2.2240 c3        1 MOL     -0.102251
     65 C22         4.6360    0.8740   -2.2060 c         1 MOL      0.419334
     66 N7          4.5440    1.6370   -3.2740 n         1 MOL     -0.693277
     67 O11         3.7360    0.7920   -1.3780 o         1 MOL     -0.420870
     68 H28         5.0470   -1.5640   -0.5570 hn        1 MOL      0.162148
     69 H29         7.5340   -0.5040   -1.0510 h1        1 MOL      0.138699
     70 H30         5.5890   -0.9600   -2.5380 hc        1 MOL      0.085810
     71 H31         6.7280    0.4080   -2.8490 hc        1 MOL      0.085810
     72 H32         5.3630    1.7410   -3.8450 hn        1 MOL      0.348597
     73 H33         3.7280    2.1960   -3.4930 hn        1 MOL      0.348597
     74 N8          6.1050    1.2400    1.2280 n         1 MOL     -0.360888
     75 C23         6.0120    2.4920    2.0090 c3        1 MOL     -0.014407
     76 C24         4.6570    3.3100    1.9410 c         1 MOL      0.531415
     77 O12         4.6930    4.4660    2.3870 o         1 MOL     -0.561828
     78 H34         5.4690    0.4940    1.4710 hn        1 MOL      0.323118
     79 H35         6.8830    3.1260    1.8570 h1        1 MOL      0.077407
     80 H36         6.1120    2.2410    3.0690 h1        1 MOL      0.077407
     81 N9          3.6360    2.8070    1.3020 n         1 MOL     -0.590181
     82 C25         2.4120    3.5080    0.9090 c3        1 MOL      0.444269
     83 C26         1.2140    2.5500    0.8200 c         1 MOL      0.281243
     84 O13         1.4030    1.3570    0.6370 o         1 MOL     -0.520201
     85 C27         2.5750    4.2020   -0.4660 c3        1 MOL      0.000154
     86 C28         3.7010    5.1960   -0.5480 ca        1 MOL      0.152717
     87 C29         4.8260    4.7920   -1.2520 ca        1 MOL     -0.300575
     88 C30         3.4560    6.5230   -0.1570 ca        1 MOL     -0.300575
     89 C31         5.8480    5.7860   -1.4200 ca        1 MOL     -0.102445
     90 C32         4.4930    7.4540   -0.2670 ca        1 MOL     -0.102445
     91 C33         5.6480    7.0640   -0.9090 ca        1 MOL      0.212675
     92 O14         6.6890    7.9490   -1.1180 oh        1 MOL     -0.489803
     93 H37         3.8170    1.9310    0.8310 hn        1 MOL      0.411081
     94 H38         2.2290    4.3560    1.5800 h1        1 MOL     -0.007600
     95 H39         1.6460    4.7340   -0.6510 hc        1 MOL     -0.038335
     96 H40         2.6740    3.4780   -1.2720 hc        1 MOL     -0.038335
     97 H41         4.8000    3.7790   -1.6330 ha        1 MOL      0.154115
     98 H42         2.5070    6.8000    0.2690 ha        1 MOL      0.154115
     99 H43         6.7430    5.4990   -1.9620 ha        1 MOL      0.120479
    100 H44         4.3250    8.4730    0.0410 ha        1 MOL      0.120479
    101 H45         6.5460    8.7130   -0.5590 ho        1 MOL      0.359146
    102 N10         0.0050    3.0750    1.1500 n         1 MOL     -0.413760
    103 C34        -1.3140    2.4640    1.0460 c3        1 MOL     -0.092048
    104 C35        -2.3460    3.4010    0.3720 c         1 MOL      0.524882
    105 O15        -2.6150    4.5020    0.8670 o         1 MOL     -0.519323
    106 C36        -1.8670    2.0010    2.4220 c3        1 MOL      0.004941
    107 C37        -1.9770    3.0650    3.5400 c3        1 MOL     -0.038421
    108 C38        -1.0270    0.8400    2.9530 c3        1 MOL     -0.456399
    109 C39        -2.3460    2.5980    4.9680 c3        1 MOL     -0.128815
    110 H46        -0.0220    4.0620    1.3720 hn        1 MOL      0.286381
    111 H47        -1.2820    1.5440    0.4730 h1        1 MOL      0.212950
    112 H48        -2.9120    1.7260    2.2360 hc        1 MOL      0.015592
    113 H49        -2.6790    3.8420    3.2340 hc        1 MOL      0.036864
    114 H50        -1.0230    3.5760    3.5520 hc        1 MOL      0.036864
    115 H51        -0.0180    1.1240    3.2320 hc        1 MOL      0.164998
    116 H52        -1.3590    0.2980    3.8330 hc        1 MOL      0.164998
    117 H53        -0.8750    0.1240    2.1430 hc        1 MOL      0.164998
    118 H54        -1.5730    1.9310    5.3690 hc        1 MOL      0.036040
    119 H55        -2.4220    3.5070    5.5650 hc        1 MOL      0.036040
    120 H56        -3.2880    2.0460    4.9430 hc        1 MOL      0.036040
    121 N11        -2.8160    2.9400   -0.7630 n         1 MOL     -0.335522
    122 C40        -4.0380    3.5470   -1.3680 c3        1 MOL      0.019940
    123 C41        -5.3990    3.3460   -0.6640 c         1 MOL      0.380012
    124 O16        -5.4570    2.6010    0.3370 o         1 MOL     -0.321823
    125 C42        -4.2070    3.0200   -2.8400 c3        1 MOL     -0.144498
    126 O17        -4.4410    1.6540   -2.6390 oh        1 MOL     -0.416782
    127 H57        -2.5270    2.0570   -1.1710 hn        1 MOL      0.215160
    128 H58        -3.7980    4.6070   -1.4780 h1        1 MOL      0.079481
    129 H59        -3.3110    3.2510   -3.4260 h1        1 MOL      0.102707
    130 H60        -5.0620    3.4490   -3.3570 h1        1 MOL      0.102707
    131 H61        -3.7160    1.2620   -3.1390 ho        1 MOL      0.372297
    132 N12        -6.4580    4.1050   -0.9850 n         1 MOL     -0.415529
    133 C43        -7.8350    3.8090   -0.5400 c3        1 MOL      0.139892
    134 C44        -8.3650    2.3300   -0.7730 c         1 MOL      0.401885
    135 O18        -8.9830    1.7160    0.1290 o         1 MOL     -0.462336
    136 C45        -8.7710    4.8980   -0.9530 c3        1 MOL     -0.428509
    137 H62        -6.4220    4.7980   -1.7160 hn        1 MOL      0.282520
    138 H63        -7.7340    3.8440    0.5430 h1        1 MOL      0.100468
    139 H64        -8.5070    5.8540   -0.4980 hc        1 MOL      0.133173
    140 H65        -8.7780    4.9660   -2.0380 hc        1 MOL      0.133173
    141 H66        -9.7610    4.6860   -0.5500 hc        1 MOL      0.133173
    142 N13        -7.9740    1.6290   -1.8970 n         1 MOL     -0.427458
    143 C46        -8.0990    0.1890   -2.1180 c3        1 MOL      0.176649
    144 C47        -7.3350   -0.6510   -1.0780 c         1 MOL      0.295393
    145 O19        -7.7870   -1.7300   -0.5870 o         1 MOL     -0.502571
    146 C48        -7.5890   -0.1620   -3.5550 c3        1 MOL     -0.332177
    147 H67        -7.6150    2.2400   -2.6070 hn        1 MOL      0.289486
    148 H68        -9.1210   -0.1720   -1.9900 h1        1 MOL      0.080792
    149 H69        -7.4150   -1.2300   -3.6090 hc        1 MOL      0.087734
    150 H70        -8.2820    0.2110   -4.3120 hc        1 MOL      0.087734
    151 H71        -6.6070    0.2890   -3.7150 hc        1 MOL      0.087734
    152 N14        -6.1030   -0.2060   -0.7020 n         1 MOL     -0.058664
    153 C49        -5.3280   -0.9730    0.2710 c3        1 MOL     -0.124345
    154 C50        -5.7990   -0.7660    1.7090 c         1 MOL      0.450043
    155 O20        -5.7450   -1.6570    2.5690 o         1 MOL     -0.542547
    156 C51        -3.9140   -0.4770    0.2550 c3        1 MOL      0.336788
    157 C52        -3.1840   -1.0540   -0.9920 c3        1 MOL      0.136105
    158 C53        -1.6850   -0.7060   -0.9820 c         1 MOL      0.471684
    159 O21        -1.3080    0.1970   -1.7670 o         1 MOL     -0.641033
    160 O22        -0.7920   -1.3480   -0.3080 o         1 MOL     -0.641033
    161 H72        -5.7810    0.5130   -1.3270 hn        1 MOL      0.153274
    162 H73        -5.3060   -2.0530    0.1700 h1        1 MOL      0.087241
    163 H74        -3.3660   -0.7260    1.1610 hc        1 MOL     -0.054958
    164 H75        -3.8700    0.6060    0.1160 hc        1 MOL     -0.054958
    165 H76        -3.6840   -0.4960   -1.7890 hc        1 MOL     -0.142777
    166 H77        -3.2880   -2.1360   -1.1190 hc        1 MOL     -0.142777
    167 N15        -6.4650    0.3440    2.0010 n         1 MOL     -0.008124
    168 C54        -7.0900    0.6190    3.2390 c3        1 MOL     -0.487899
    169 H78        -7.5790   -0.2830    3.6080 h1        1 MOL      0.160363
    170 H79        -6.3410    0.9470    3.9600 h1        1 MOL      0.160363
    171 H80        -7.8340    1.4050    3.1040 h1        1 MOL      0.160363
    172 H81        -6.5010    1.0990    1.3300 hn        1 MOL      0.082800
    173 Ca1         1.4700   -0.6020   -1.3340 Ca        1 MOL      1.759333
    174 O23         0.9220    1.9000   -2.3530 oh        1 MOL     -0.826172
    175 H82         0.9330    1.8300   -3.3090 ho        1 MOL      0.399856
    176 H83         0.4230    2.7030   -2.1800 ho        1 MOL      0.399856
    177 O24         0.3040   -2.3800   -3.0870 oh        1 MOL     -0.826172
    178 H84         0.0890   -3.3170   -3.1620 ho        1 MOL      0.399856
    179 H85        -0.2360   -1.9540   -3.7510 ho        1 MOL      0.399856
    180 O25         2.1440   -0.2040   -4.0250 oh        1 MOL     -0.826172
    181 H86         2.3260    0.2190   -4.8590 ho        1 MOL      0.399856
    182 H87         2.8300   -0.8680   -3.9280 ho        1 MOL      0.399856
@<TRIPOS>BOND
     1    1    2 1   
     2    1    4 1   
     3    1    5 1   
     4    1    6 1   
     5    2    3 2   
     6    2    7 1   
     7    7    8 1   
     8    7   15 1   
     9    8    9 1   
    10    8   11 1   
    11    8   16 1   
    12    9   10 2   
    13    9   19 1   
    14   11   12 1   
    15   11   17 1   
    16   11   18 1   
    17   12   13 1   
    18   12   14 1   
    19   19   20 1   
    20   19   28 1   
    21   20   21 1   
    22   20   23 1   
    23   20   29 1   
    24   21   22 2   
    25   21   41 1   
    26   23   24 1   
    27   23   30 1   
    28   23   31 1   
    29   24   25 1   
    30   24   32 1   
    31   24   33 1   
    32   25   26 1   
    33   25   34 1   
    34   25   35 1   
    35   26   27 1   
    36   26   36 1   
    37   26   37 1   
    38   27   38 1   
    39   27   39 1   
    40   27   40 1   
    41   41   42 1   
    42   41   49 1   
    43   42   43 1   
    44   42   45 1   
    45   42   50 1   
    46   43   44 2   
    47   43   53 1   
    48   45   46 1   
    49   45   51 1   
    50   45   52 1   
    51   46   47 1   
    52   46   48 1   
    53   53   54 1   
    54   53   57 1   
    55   54   55 1   
    56   54   58 1   
    57   54   59 1   
    58   55   56 2   
    59   55   60 1   
    60   60   61 1   
    61   60   68 1   
    62   61   62 1   
    63   61   64 1   
    64   61   69 1   
    65   62   63 2   
    66   62   74 1   
    67   64   65 1   
    68   64   70 1   
    69   64   71 1   
    70   65   66 1   
    71   65   67 2   
    72   66   72 1   
    73   66   73 1   
    74   74   75 1   
    75   74   78 1   
    76   75   76 1   
    77   75   79 1   
    78   75   80 1   
    79   76   77 2   
    80   76   81 1   
    81   81   82 1   
    82   81   93 1   
    83   82   83 1   
    84   82   85 1   
    85   82   94 1   
    86   83   84 2   
    87   83  102 1   
    88   85   86 1   
    89   85   95 1   
    90   85   96 1   
    91   86   87 ar  
    92   86   88 ar  
    93   87   89 ar  
    94   87   97 1   
    95   88   90 ar  
    96   88   98 1   
    97   89   91 ar  
    98   89   99 1   
    99   90   91 ar  
   100   90  100 1   
   101   91   92 1   
   102   92  101 1   
   103  102  103 1   
   104  102  110 1   
   105  103  104 1   
   106  103  106 1   
   107  103  111 1   
   108  104  105 2   
   109  104  121 1   
   110  106  107 1   
   111  106  108 1   
   112  106  112 1   
   113  107  109 1   
   114  107  113 1   
   115  107  114 1   
   116  108  115 1   
   117  108  116 1   
   118  108  117 1   
   119  109  118 1   
   120  109  119 1   
   121  109  120 1   
   122  121  122 1   
   123  121  127 1   
   124  122  123 1   
   125  122  125 1   
   126  122  128 1   
   127  123  124 2   
   128  123  132 1   
   129  125  126 1   
   130  125  129 1   
   131  125  130 1   
   132  126  131 1   
   133  132  133 1   
   134  132  137 1   
   135  133  134 1   
   136  133  136 1   
   137  133  138 1   
   138  134  135 2   
   139  134  142 1   
   140  136  139 1   
   141  136  140 1   
   142  136  141 1   
   143  142  143 1   
   144  142  147 1   
   145  143  144 1   
   146  143  146 1   
   147  143  148 1   
   148  144  145 2   
   149  144  152 1   
   150  146  149 1   
   151  146  150 1   
   152  146  151 1   
   153  152  153 1   
   154  152  161 1   
   155  153  154 1   
   156  153  156 1   
   157  153  162 1   
   158  154  155 2   
   159  154  167 1   
   160  156  157 1   
   161  156  163 1   
   162  156  164 1   
   163  157  158 1   
   164  157  165 1   
   165  157  166 1   
   166  158  159 1   
   167  158  160 1   
   168  167  168 1   
   169  167  172 1   
   170  168  169 1   
   171  168  170 1   
   172  168  171 1   
   173  174  175 1   
   174  174  176 1   
   175  177  178 1   
   176  177  179 1   
   177  180  181 1   
   178  180  182 1   
@<TRIPOS>SUBSTRUCTURE
     1 MOL         1 TEMP              0 ****  ****    0 ROOT
