@<TRIPOS>MOLECULE
MOL
  175   173     1     0     0
SMALL
resp


@<TRIPOS>ATOM
      1 C1          0.3890    4.3270    5.3390 c3        1 MOL     -0.465620
      2 C2         -0.1470    3.9940    3.9630 c         1 MOL      0.737329
      3 O1          0.5490    4.0450    2.9620 o         1 MOL     -0.541464
      4 H1          1.1380    3.5880    5.6240 hc        1 MOL      0.112483
      5 H2          0.8440    5.3170    5.3220 hc        1 MOL      0.112483
      6 H3         -0.4280    4.3130    6.0600 hc        1 MOL      0.112483
      7 N1         -1.4590    3.7630    3.8590 n         1 MOL     -0.622935
      8 C3         -2.1200    3.4330    2.5840 c3        1 MOL      0.019430
      9 C4         -2.0950    4.5990    1.6140 c         1 MOL      0.780975
     10 O2         -2.1350    5.7340    2.1240 o         1 MOL     -0.634371
     11 C5         -3.5500    2.9180    2.7890 c3        1 MOL     -0.271582
     12 C6         -4.2010    2.3070    1.5010 c         1 MOL      0.675056
     13 O3         -3.5740    2.0330    0.5040 o         1 MOL     -0.659247
     14 O4         -5.4100    2.0440    1.6300 o         1 MOL     -0.659247
     15 H4         -2.1200    3.8150    4.6150 hn        1 MOL      0.338567
     16 H5         -1.5810    2.5850    2.1600 h1        1 MOL      0.142852
     17 H6         -4.2300    3.6920    3.1310 hc        1 MOL      0.049127
     18 H7         -3.6080    2.1260    3.5320 hc        1 MOL      0.049127
     19 N2         -2.0600    4.3830    0.3390 n         1 MOL     -0.720794
     20 C7         -2.1930    5.2770   -0.7850 c3        1 MOL      0.311581
     21 C8         -3.1760    4.8210   -1.9110 c         1 MOL      0.433485
     22 O5         -3.2380    5.5420   -2.9020 o         1 MOL     -0.554184
     23 C9         -0.8020    5.3800   -1.3280 c3        1 MOL     -0.223085
     24 H8         -1.8470    3.4200    0.1000 hn        1 MOL      0.412694
     25 H9         -2.4970    6.2670   -0.4580 h1        1 MOL      0.017118
     26 H10        -0.5440    4.5960   -2.0250 hc        1 MOL      0.058402
     27 H11        -0.6580    6.2980   -1.8990 hc        1 MOL      0.058402
     28 H12        -0.1620    5.4830   -0.4490 hc        1 MOL      0.058402
     29 N3         -3.8740    3.6640   -1.7880 n         1 MOL     -0.446405
     30 C10        -4.8050    3.2830   -2.8430 c3        1 MOL      0.122547
     31 C11        -6.2340    2.6020   -2.5220 c         1 MOL      0.348726
     32 O6         -7.0750    2.5080   -3.3810 o         1 MOL     -0.515980
     33 C12        -4.0280    2.2970   -3.7710 c3        1 MOL     -0.379793
     34 C13        -3.5140    1.0970   -2.9850 c         1 MOL      0.856626
     35 O7         -4.0870    0.5920   -1.9900 o         1 MOL     -0.793315
     36 O8         -2.3000    0.7060   -3.1330 o         1 MOL     -0.793315
     37 H13        -3.5460    3.0300   -1.0820 hn        1 MOL      0.320255
     38 H14        -5.0350    4.1080   -3.5080 h1        1 MOL      0.091273
     39 H15        -3.2010    2.8930   -4.1540 hc        1 MOL      0.108545
     40 H16        -4.7130    1.9550   -4.5400 hc        1 MOL      0.108545
     41 N4         -6.4510    2.2280   -1.2520 n         1 MOL     -0.144581
     42 C14        -7.5350    1.4410   -0.7440 c3        1 MOL     -0.325652
     43 C15        -7.5910    0.0180   -1.1830 c         1 MOL      0.543677
     44 O9         -8.6970   -0.5450   -1.0170 o         1 MOL     -0.619400
     45 H17        -5.6890    2.3280   -0.6040 hn        1 MOL      0.119170
     46 H18        -8.4220    1.9340   -1.1230 h1        1 MOL      0.155486
     47 H19        -7.5520    1.4490    0.3440 h1        1 MOL      0.155486
     48 N5         -6.5360   -0.6770   -1.6420 n         1 MOL     -0.243567
     49 C16        -6.4590   -2.0980   -1.9410 c3        1 MOL      0.013680
     50 C17        -6.4870   -3.1380   -0.6920 c         1 MOL      0.387709
     51 O10        -6.6050   -4.3710   -0.8420 o         1 MOL     -0.533341
     52 C18        -5.3600   -2.3150   -2.9160 c3        1 MOL     -0.214258
     53 C19        -3.9600   -2.2870   -2.5250 c         1 MOL      0.536086
     54 N6         -2.9930   -2.4120   -3.3710 n         1 MOL     -0.536086
     55 O11        -3.6120   -2.1590   -1.3460 o         1 MOL     -0.370659
     56 H20        -5.6240   -0.2330   -1.7380 hn        1 MOL      0.277477
     57 H21        -7.3970   -2.3340   -2.4620 h1        1 MOL      0.083733
     58 H22        -5.4070   -1.5660   -3.6960 hc        1 MOL      0.059611
     59 H23        -5.5740   -3.3260   -3.2830 hc        1 MOL      0.059611
     60 H24        -3.1670   -2.8370   -4.2800 hn        1 MOL      0.286533
     61 H25        -2.0360   -2.5610   -3.1030 hn        1 MOL      0.286533
     62 N7         -6.2740   -2.6060    0.4760 n         1 MOL     -0.113532
     63 C20        -6.2030   -3.3940    1.7190 c3        1 MOL     -0.288407
     64 C21        -4.8850   -4.1110    2.0370 c         1 MOL      0.539669
     65 O12        -4.8960   -4.9190    2.9850 o         1 MOL     -0.584092
     66 H26        -6.0910   -1.6170    0.4570 hn        1 MOL      0.186328
     67 H27        -6.8790   -4.2540    1.7050 h1        1 MOL      0.126681
     68 H28        -6.4450   -2.8010    2.6000 h1        1 MOL      0.126681
     69 N8         -3.8010   -3.8470    1.3040 n         1 MOL     -0.157085
     70 C22        -2.3920   -4.3090    1.4630 c3        1 MOL     -0.318709
     71 C23        -1.4000   -3.1890    1.4820 c         1 MOL      0.741957
     72 O13        -1.5290   -2.3040    0.6160 o         1 MOL     -0.738594
     73 C24        -1.9320   -5.3290    0.3520 c3        1 MOL      0.649642
     74 C25        -2.6970   -6.6380    0.6320 c3        1 MOL     -0.479951
     75 O14        -2.1760   -4.8390   -0.9630 oh        1 MOL     -0.649396
     76 H29        -3.9770   -3.2030    0.5340 hn        1 MOL      0.150308
     77 H30        -2.3160   -4.8530    2.4060 h1        1 MOL      0.099213
     78 H31        -0.8710   -5.5580    0.4870 h1        1 MOL     -0.049898
     79 H32        -2.3980   -3.9070   -0.9960 ho        1 MOL      0.330699
     80 H33        -2.4070   -6.9850    1.6200 hc        1 MOL      0.108617
     81 H34        -3.7790   -6.5730    0.6920 hc        1 MOL      0.108617
     82 H35        -2.3450   -7.3670   -0.0950 hc        1 MOL      0.108617
     83 N9         -0.4590   -3.2830    2.4480 n         1 MOL     -0.524149
     84 C26         0.8190   -2.5340    2.3530 c3        1 MOL     -0.056466
     85 C27         1.5110   -2.9890    1.0070 c         1 MOL      0.500786
     86 O15         1.8670   -4.1900    0.8590 o         1 MOL     -0.573067
     87 C28         1.5890   -2.6930    3.6160 c3        1 MOL      0.090744
     88 C29         0.9810   -1.6330    4.6120 c3        1 MOL      0.055191
     89 C30         3.0780   -2.3290    3.3510 c3        1 MOL     -0.099442
     90 C31         1.8170   -1.4190    5.9070 c3        1 MOL     -0.261911
     91 H36        -0.3280   -4.1660    2.9170 hn        1 MOL      0.292212
     92 H37         0.6370   -1.4740    2.1580 h1        1 MOL     -0.021568
     93 H38         1.5520   -3.6800    4.0730 hc        1 MOL      0.029993
     94 H39        -0.0390   -1.9470    4.8410 hc        1 MOL      0.003297
     95 H40         0.9030   -0.6720    4.0960 hc        1 MOL      0.003297
     96 H41         3.1010   -1.2960    3.0140 hc        1 MOL      0.018527
     97 H42         3.6410   -2.4980    4.2640 hc        1 MOL      0.018527
     98 H43         3.5250   -2.9660    2.5950 hc        1 MOL      0.018527
     99 H44         1.2670   -0.7550    6.5850 hc        1 MOL      0.062861
    100 H45         2.0800   -2.3750    6.3530 hc        1 MOL      0.062861
    101 H46         2.7100   -0.8220    5.6930 hc        1 MOL      0.062861
    102 N10         1.9210   -2.0460    0.1320 n         1 MOL     -0.196805
    103 C32         2.8560   -2.2620   -1.0580 c3        1 MOL      0.008142
    104 C33         4.2830   -1.8290   -0.7120 c         1 MOL      0.439598
    105 O16         4.5070   -1.3670    0.4660 o         1 MOL     -0.389713
    106 C34         2.2200   -1.4610   -2.3210 c3        1 MOL     -0.280085
    107 C35         0.7600   -1.6030   -2.4890 c         1 MOL      0.784263
    108 O17        -0.0620   -0.8560   -1.8620 o         1 MOL     -0.680271
    109 O18         0.3850   -2.4460   -3.3340 o         1 MOL     -0.680271
    110 H47         1.8030   -1.0900    0.4400 hn        1 MOL      0.237031
    111 H48         2.7910   -3.3200   -1.3160 h1        1 MOL      0.102621
    112 H49         2.8030   -1.7930   -3.1800 hc        1 MOL      0.048838
    113 H50         2.4510   -0.3990   -2.2820 hc        1 MOL      0.048838
    114 N11         5.2520   -2.0150   -1.5770 n         1 MOL     -0.575283
    115 C36         6.6510   -1.5470   -1.3790 c3        1 MOL      0.336560
    116 C37         6.7660   -0.0170   -1.0080 c         1 MOL      0.236142
    117 O19         7.5730    0.3490   -0.1580 o         1 MOL     -0.464732
    118 C38         7.5120   -2.0640   -2.5960 c3        1 MOL     -0.101889
    119 C39         8.9820   -1.7990   -2.3410 ca        1 MOL     -0.065896
    120 C40         9.6630   -2.4820   -1.3570 ca        1 MOL     -0.025880
    121 C41         9.5900   -0.7960   -3.0920 ca        1 MOL     -0.025880
    122 C42        11.0220   -2.1350   -1.0710 ca        1 MOL     -0.244438
    123 C43        10.9180   -0.4000   -2.8730 ca        1 MOL     -0.244438
    124 C44        11.5970   -1.0580   -1.7900 ca        1 MOL      0.019745
    125 H51         4.9990   -2.2670   -2.5210 hn        1 MOL      0.310312
    126 H52         6.9900   -2.0920   -0.4920 h1        1 MOL      0.040827
    127 H53         7.2040   -1.5960   -3.5280 hc        1 MOL      0.045779
    128 H54         7.3060   -3.1180   -2.7730 hc        1 MOL      0.045779
    129 H55         9.2180   -3.3470   -0.9000 ha        1 MOL      0.093105
    130 H56         9.1580   -0.5080   -4.0320 ha        1 MOL      0.093105
    131 H57        11.4940   -2.5350   -0.1790 ha        1 MOL      0.146823
    132 H58        11.4500    0.3200   -3.4780 ha        1 MOL      0.146823
    133 H59        12.6190   -0.7710   -1.5900 ha        1 MOL      0.069923
    134 N12         6.1020    0.8560   -1.7270 n         1 MOL     -0.020062
    135 C45         6.2280    2.3280   -1.3780 c3        1 MOL      0.011096
    136 C46         5.4640    2.7330   -0.1540 c         1 MOL      0.150662
    137 O20         5.8030    3.7930    0.4560 o         1 MOL     -0.477092
    138 C47         5.5790    3.0680   -2.5470 c3        1 MOL      0.013707
    139 C48         5.7830    2.0360   -3.6670 c3        1 MOL     -0.203582
    140 C49         5.4390    0.8040   -2.9690 c3        1 MOL     -0.049455
    141 H60         7.2930    2.5610   -1.3160 h1        1 MOL      0.110615
    142 H61         4.5240    3.3260   -2.4240 hc        1 MOL      0.049021
    143 H62         6.1450    3.9850   -2.7310 hc        1 MOL      0.049021
    144 H63         5.0870    2.2430   -4.4770 hc        1 MOL      0.067419
    145 H64         6.8280    1.9930   -3.9710 hc        1 MOL      0.067419
    146 H65         4.3610    0.7460   -2.8160 h1        1 MOL      0.071424
    147 H66         5.7130   -0.0490   -3.5920 h1        1 MOL      0.071424
    148 N13         4.5480    1.8880    0.3640 n         1 MOL      0.057570
    149 C50         3.9520    2.1410    1.7030 c3        1 MOL     -0.051904
    150 C51         4.9320    1.5760    2.8070 c         1 MOL      0.431407
    151 O21         5.0680    2.1820    3.8400 o         1 MOL     -0.540314
    152 C52         2.5920    1.5480    1.6860 c3        1 MOL     -0.013660
    153 C53         1.6440    2.2020    0.6320 c3        1 MOL     -0.100522
    154 C54         0.1880    1.6260    0.5530 c         1 MOL      0.496236
    155 O22        -0.5490    2.0490   -0.3450 o         1 MOL     -0.665906
    156 O23        -0.2640    0.7060    1.2120 o         1 MOL     -0.665906
    157 H67         4.3370    0.9850   -0.0430 hn        1 MOL      0.069466
    158 H68         3.9580    3.1850    2.0050 h1        1 MOL      0.102647
    159 H69         2.0790    1.7760    2.6220 hc        1 MOL      0.047766
    160 H70         2.6510    0.4670    1.5520 hc        1 MOL      0.047766
    161 H71         2.1400    1.9910   -0.3110 hc        1 MOL      0.053577
    162 H72         1.6740    3.2850    0.7390 hc        1 MOL      0.053577
    163 N14         5.6990    0.4920    2.5150 n         1 MOL     -0.065039
    164 C55         6.7240   -0.0690    3.3890 c3        1 MOL     -0.150296
    165 H73         6.4690   -1.1010    3.6300 h1        1 MOL      0.061452
    166 H74         7.6880   -0.0420    2.8830 h1        1 MOL      0.061452
    167 H75         6.7780    0.5160    4.3080 h1        1 MOL      0.061452
    168 H76         5.5070   -0.0140    1.6600 hn        1 MOL      0.067783
    169 Ca1        -2.0820   -0.0450   -0.5130 Ca        1 MOL      1.705829
    170 O24        -2.0590   -0.4410    2.7110 oh        1 MOL     -0.734973
    171 H77        -1.9420   -0.4220    3.6660 ho        1 MOL      0.375589
    172 H78        -1.2660   -0.0460    2.3560 ho        1 MOL      0.375589
    173 O25        -4.0850   -0.9890    1.2600 oh        1 MOL     -0.734973
    174 H79        -4.8600   -0.7320    1.7560 ho        1 MOL      0.375589
    175 H80        -3.3720   -0.9570    1.8940 ho        1 MOL      0.375589
@<TRIPOS>BOND
     1    1    2 1   
     2    1    4 1   
     3    1    5 1   
     4    1    6 1   
     5    2    3 2   
     6    2    7 1   
     7    7    8 1   
     8    7   15 1   
     9    8    9 1   
    10    8   11 1   
    11    8   16 1   
    12    9   10 2   
    13    9   19 1   
    14   11   12 1   
    15   11   17 1   
    16   11   18 1   
    17   12   13 1   
    18   12   14 1   
    19   19   20 1   
    20   19   24 1   
    21   20   21 1   
    22   20   23 1   
    23   20   25 1   
    24   21   22 2   
    25   21   29 1   
    26   23   26 1   
    27   23   27 1   
    28   23   28 1   
    29   29   30 1   
    30   29   37 1   
    31   30   31 1   
    32   30   33 1   
    33   30   38 1   
    34   31   32 2   
    35   31   41 1   
    36   33   34 1   
    37   33   39 1   
    38   33   40 1   
    39   34   35 1   
    40   34   36 1   
    41   41   42 1   
    42   41   45 1   
    43   42   43 1   
    44   42   46 1   
    45   42   47 1   
    46   43   44 2   
    47   43   48 1   
    48   48   49 1   
    49   48   56 1   
    50   49   50 1   
    51   49   52 1   
    52   49   57 1   
    53   50   51 2   
    54   50   62 1   
    55   52   53 1   
    56   52   58 1   
    57   52   59 1   
    58   53   54 1   
    59   53   55 2   
    60   54   60 1   
    61   54   61 1   
    62   62   63 1   
    63   62   66 1   
    64   63   64 1   
    65   63   67 1   
    66   63   68 1   
    67   64   65 2   
    68   64   69 1   
    69   69   70 1   
    70   69   76 1   
    71   70   71 1   
    72   70   73 1   
    73   70   77 1   
    74   71   72 2   
    75   71   83 1   
    76   73   74 1   
    77   73   75 1   
    78   73   78 1   
    79   74   80 1   
    80   74   81 1   
    81   74   82 1   
    82   75   79 1   
    83   83   84 1   
    84   83   91 1   
    85   84   85 1   
    86   84   87 1   
    87   84   92 1   
    88   85   86 2   
    89   85  102 1   
    90   87   88 1   
    91   87   89 1   
    92   87   93 1   
    93   88   90 1   
    94   88   94 1   
    95   88   95 1   
    96   89   96 1   
    97   89   97 1   
    98   89   98 1   
    99   90   99 1   
   100   90  100 1   
   101   90  101 1   
   102  102  103 1   
   103  102  110 1   
   104  103  104 1   
   105  103  106 1   
   106  103  111 1   
   107  104  105 2   
   108  104  114 1   
   109  106  107 1   
   110  106  112 1   
   111  106  113 1   
   112  107  108 1   
   113  107  109 1   
   114  114  115 1   
   115  114  125 1   
   116  115  116 1   
   117  115  118 1   
   118  115  126 1   
   119  116  117 2   
   120  116  134 1   
   121  118  119 1   
   122  118  127 1   
   123  118  128 1   
   124  119  120 ar  
   125  119  121 ar  
   126  120  122 ar  
   127  120  129 1   
   128  121  123 ar  
   129  121  130 1   
   130  122  124 ar  
   131  122  131 1   
   132  123  124 ar  
   133  123  132 1   
   134  124  133 1   
   135  134  135 1   
   136  134  140 1   
   137  135  136 1   
   138  135  138 1   
   139  135  141 1   
   140  136  137 2   
   141  136  148 1   
   142  138  139 1   
   143  138  142 1   
   144  138  143 1   
   145  139  140 1   
   146  139  144 1   
   147  139  145 1   
   148  140  146 1   
   149  140  147 1   
   150  148  149 1   
   151  148  157 1   
   152  149  150 1   
   153  149  152 1   
   154  149  158 1   
   155  150  151 2   
   156  150  163 1   
   157  152  153 1   
   158  152  159 1   
   159  152  160 1   
   160  153  154 1   
   161  153  161 1   
   162  153  162 1   
   163  154  155 1   
   164  154  156 1   
   165  163  164 1   
   166  163  168 1   
   167  164  165 1   
   168  164  166 1   
   169  164  167 1   
   170  170  171 1   
   171  170  172 1   
   172  173  174 1   
   173  173  175 1   
@<TRIPOS>SUBSTRUCTURE
     1 MOL         1 TEMP              0 ****  ****    0 ROOT
