@<TRIPOS>MOLECULE
MOL
  189   185     1     0     0
SMALL
resp


@<TRIPOS>ATOM
      1 C1          0.6760    2.5310    5.3900 c3        1 MOL     -0.367024
      2 C2          0.0340    2.4780    4.0590 c         1 MOL      0.695097
      3 O1          0.5030    3.0930    3.0890 o         1 MOL     -0.638348
      4 H1          1.2350    3.4620    5.4850 hc        1 MOL      0.099013
      5 H2         -0.0890    2.4860    6.1650 hc        1 MOL      0.099013
      6 H3          1.3550    1.6860    5.5000 hc        1 MOL      0.099013
      7 N1         -1.1410    1.8150    3.8700 n         1 MOL     -0.598079
      8 C3         -1.8350    1.7110    2.5300 c3        1 MOL      0.469833
      9 C4         -2.3870    3.0540    1.9960 c         1 MOL      0.110343
     10 O2         -3.4120    3.5500    2.4290 o         1 MOL     -0.507537
     11 C5         -2.9620    0.7400    2.7860 c3        1 MOL     -0.564894
     12 C6         -3.8250    0.3440    1.5960 c         1 MOL      0.978108
     13 O3         -3.4100    0.8280    0.4770 o         1 MOL     -0.749837
     14 O4         -4.8320   -0.3470    1.6240 o         1 MOL     -0.749837
     15 H4         -1.5640    1.3600    4.6640 hn        1 MOL      0.318026
     16 H5         -1.1730    1.2770    1.7840 h1        1 MOL     -0.092472
     17 H6         -3.6590    1.1090    3.5440 hc        1 MOL      0.118991
     18 H7         -2.5070   -0.1680    3.1860 hc        1 MOL      0.118991
     19 N2         -1.7170    3.6290    1.0230 n         1 MOL      0.384926
     20 C7         -2.0280    4.9170    0.5560 c3        1 MOL      0.102282
     21 C8         -3.1550    4.9420   -0.4640 c         1 MOL      0.255124
     22 O5         -3.8630    5.9540   -0.4470 o         1 MOL     -0.550837
     23 C9         -0.7720    5.6480   -0.0870 c3        1 MOL     -0.162173
     24 C10         0.4220    5.9550    0.8700 c3        1 MOL      0.177338
     25 C11        -0.0080    6.5480    2.2390 c3        1 MOL     -0.057186
     26 C12         1.2060    7.1310    2.9690 c3        1 MOL      0.125837
     27 N3          0.8720    7.8240    4.2720 n4        1 MOL     -0.408074
     28 H8         -0.9690    3.1020    0.6180 hn        1 MOL      0.041060
     29 H9         -2.4250    5.5070    1.3860 h1        1 MOL     -0.013489
     30 H10        -1.0550    6.6350   -0.4490 hc        1 MOL      0.038877
     31 H11        -0.4730    4.9830   -0.8860 hc        1 MOL      0.038877
     32 H12         1.0390    6.7250    0.3810 hc        1 MOL     -0.036892
     33 H13         1.0180    5.0480    0.9370 hc        1 MOL     -0.036892
     34 H14        -0.5030    5.7350    2.7760 hc        1 MOL      0.026490
     35 H15        -0.6920    7.3470    1.9910 hc        1 MOL      0.026490
     36 H16         1.6480    7.8760    2.3030 hx        1 MOL      0.049731
     37 H17         1.9610    6.3730    3.1060 hx        1 MOL      0.049731
     38 H18         0.5160    7.2160    4.9870 hn        1 MOL      0.333186
     39 H19         1.7520    8.1760    4.6390 hn        1 MOL      0.333186
     40 H20         0.1870    8.5550    4.1340 hn        1 MOL      0.333186
     41 N4         -3.2890    4.0280   -1.3570 n         1 MOL     -0.147212
     42 C13        -4.4310    3.9040   -2.2640 c3        1 MOL      0.033069
     43 C14        -5.5760    2.9590   -1.7520 c         1 MOL      0.373764
     44 O6         -6.6640    2.8710   -2.3670 o         1 MOL     -0.541603
     45 C15        -4.0720    3.3660   -3.7080 c3        1 MOL     -0.297139
     46 C16        -3.2110    2.1000   -3.7660 c         1 MOL      0.783634
     47 O7         -2.5410    1.9040   -4.7560 o         1 MOL     -0.684613
     48 O8         -3.1370    1.3860   -2.7390 o         1 MOL     -0.684613
     49 H21        -2.5660    3.3160   -1.3390 hn        1 MOL      0.152083
     50 H22        -4.9920    4.8310   -2.3720 h1        1 MOL      0.107128
     51 H23        -3.4930    4.2060   -4.0950 hc        1 MOL      0.069638
     52 H24        -4.9200    3.3170   -4.4000 hc        1 MOL      0.069638
     53 N5         -5.4800    2.4370   -0.5460 n         1 MOL     -0.086566
     54 C17        -6.6390    1.8650    0.1470 c3        1 MOL     -0.286634
     55 C18        -7.2110    0.6150   -0.5550 c         1 MOL      0.541343
     56 O9         -8.4410    0.2450   -0.3410 o         1 MOL     -0.612395
     57 H25        -4.5460    2.4410   -0.1470 hn        1 MOL      0.163951
     58 H26        -7.4340    2.6070    0.2220 h1        1 MOL      0.125669
     59 H27        -6.3040    1.5880    1.1510 h1        1 MOL      0.125669
     60 N6         -6.3790   -0.1080   -1.2670 n         1 MOL     -0.179106
     61 C19        -6.8240   -1.3450   -1.8980 c3        1 MOL      0.000303
     62 C20        -6.9430   -2.5160   -0.8710 c         1 MOL      0.453525
     63 O10        -7.2590   -3.6400   -1.3200 o         1 MOL     -0.544702
     64 C21        -5.7910   -1.5860   -3.0330 c3        1 MOL     -0.298110
     65 C22        -4.3770   -1.5350   -2.6270 c         1 MOL      0.780660
     66 O11        -4.0680   -1.8330   -1.4820 o         1 MOL     -0.706606
     67 O12        -3.4260   -1.4510   -3.4770 o         1 MOL     -0.706606
     68 H28        -5.4070    0.1640   -1.2160 hn        1 MOL      0.126957
     69 H29        -7.8290   -1.1650   -2.2600 h1        1 MOL      0.114061
     70 H30        -5.9930   -0.9380   -3.8860 hc        1 MOL      0.098619
     71 H31        -6.0580   -2.6160   -3.2800 hc        1 MOL      0.098619
     72 N7         -6.6770   -2.4070    0.4430 n         1 MOL     -0.310406
     73 C23        -6.8840   -3.3810    1.4230 c3        1 MOL     -0.032718
     74 C24        -5.5970   -4.1930    1.5610 c         1 MOL      0.440152
     75 O13        -5.6540   -5.2900    2.0820 o         1 MOL     -0.541444
     76 H32        -6.2430   -1.5760    0.8140 hn        1 MOL      0.310403
     77 H33        -7.6920   -4.0770    1.1880 h1        1 MOL      0.083078
     78 H34        -7.2140   -2.9700    2.3720 h1        1 MOL      0.083078
     79 N8         -4.4260   -3.6710    1.0220 n         1 MOL     -0.156254
     80 C25        -3.1150   -4.4150    1.0220 c3        1 MOL     -0.241681
     81 C26        -1.8720   -3.4660    1.1040 c         1 MOL      0.586011
     82 O14        -2.0130   -2.2950    0.7510 o         1 MOL     -0.611881
     83 C27        -2.9840   -5.2350   -0.2930 c3        1 MOL      0.502431
     84 C28        -3.9110   -6.4560   -0.2910 c3        1 MOL     -0.334079
     85 O15        -3.2850   -4.5350   -1.4470 oh        1 MOL     -0.630309
     86 H35        -4.5210   -2.7050    0.7720 hn        1 MOL      0.139281
     87 H36        -3.1830   -5.1050    1.8590 h1        1 MOL      0.109711
     88 H37        -1.9540   -5.5810   -0.3290 h1        1 MOL     -0.022335
     89 H38        -3.6460   -3.6840   -1.1910 ho        1 MOL      0.443084
     90 H39        -4.9590   -6.1410   -0.2920 hc        1 MOL      0.080680
     91 H40        -3.5230   -7.1670   -1.0140 hc        1 MOL      0.080680
     92 H41        -3.6940   -7.0040    0.6230 hc        1 MOL      0.080680
     93 N9         -0.6940   -4.0490    1.4310 n         1 MOL     -0.643994
     94 C29         0.5790   -3.2710    1.5970 c3        1 MOL      0.020836
     95 C30         1.6870   -3.8440    0.7080 c         1 MOL      0.563004
     96 O16         2.0210   -5.0330    0.8610 o         1 MOL     -0.560275
     97 C31         1.0370   -3.1700    3.1080 c3        1 MOL      0.278477
     98 C32        -0.0750   -3.3030    4.2400 c3        1 MOL      0.153792
     99 C33         1.6580   -1.7480    3.1240 c3        1 MOL     -0.892754
    100 C34         0.4780   -3.2740    5.6330 c3        1 MOL     -0.333252
    101 H42        -0.6660   -4.9770    1.8250 hn        1 MOL      0.329800
    102 H43         0.3070   -2.2430    1.3160 h1        1 MOL      0.164084
    103 H44         1.7630   -3.9820    3.2350 hc        1 MOL     -0.039312
    104 H45        -0.6400   -4.2120    4.0780 hc        1 MOL     -0.000760
    105 H46        -0.6210   -2.3600    4.1250 hc        1 MOL     -0.000760
    106 H47         2.3690   -1.6130    2.3060 hc        1 MOL      0.204421
    107 H48         0.8330   -1.0310    3.0850 hc        1 MOL      0.204421
    108 H49         2.1820   -1.6240    4.0760 hc        1 MOL      0.204421
    109 H50        -0.3600   -3.6140    6.2360 hc        1 MOL      0.079917
    110 H51         1.3320   -3.9390    5.7100 hc        1 MOL      0.079917
    111 H52         0.8120   -2.2650    5.8710 hc        1 MOL      0.079917
    112 N10         2.3870   -2.9870   -0.0470 n         1 MOL     -0.234482
    113 C35         3.6600   -3.2530   -0.7740 c3        1 MOL      0.063981
    114 C36         4.9400   -2.9090    0.0290 c         1 MOL      0.292004
    115 O17         4.8980   -2.0710    0.9340 o         1 MOL     -0.254515
    116 C37         3.7240   -2.4690   -2.0960 c3        1 MOL      0.033750
    117 C38         2.6310   -2.9070   -3.0670 c3        1 MOL     -0.566280
    118 O18         3.5610   -1.1030   -1.8300 oh        1 MOL     -0.259555
    119 H53         2.1450   -2.0100    0.0370 hn        1 MOL      0.112413
    120 H54         3.6450   -4.3140   -0.9950 h1        1 MOL      0.070390
    121 H55         4.7130   -2.6730   -2.5210 h1        1 MOL      0.044760
    122 H56         3.3420   -0.7500   -2.6970 ho        1 MOL      0.351728
    123 H57         2.6260   -3.9980   -3.0710 hc        1 MOL      0.168981
    124 H58         1.6210   -2.6120   -2.7650 hc        1 MOL      0.168981
    125 H59         2.8690   -2.5430   -4.0700 hc        1 MOL      0.168981
    126 N11         6.0670   -3.4080   -0.4110 n         1 MOL     -0.231175
    127 C39         7.3930   -3.0100    0.0970 c3        1 MOL     -0.280706
    128 C40         7.5940   -1.4680    0.0930 c         1 MOL      0.473325
    129 O19         8.1130   -0.8930    1.0320 o         1 MOL     -0.507936
    130 C41         8.5700   -3.5020   -0.7610 c3        1 MOL      0.321129
    131 C42         8.5550   -5.0280   -0.9050 c3        1 MOL     -0.447213
    132 O20         8.6080   -3.0430   -2.0480 oh        1 MOL     -0.651082
    133 H60         6.0410   -3.9830   -1.2460 hn        1 MOL      0.259076
    134 H61         7.5600   -3.4210    1.0960 h1        1 MOL      0.178403
    135 H62         9.4760   -3.1170   -0.3140 h1        1 MOL      0.067849
    136 H63         9.0930   -3.6400   -2.6180 ho        1 MOL      0.429904
    137 H64         8.4210   -5.4660    0.0940 hc        1 MOL      0.124197
    138 H65         7.7580   -5.3780   -1.5630 hc        1 MOL      0.124197
    139 H66         9.5040   -5.4220   -1.2760 hc        1 MOL      0.124197
    140 N12         7.1910   -0.7700   -0.9540 n         1 MOL     -0.160436
    141 C43         7.1640    0.6540   -1.0970 c3        1 MOL     -0.049135
    142 C44         6.2470    1.4230   -0.1210 c         1 MOL      0.320680
    143 O21         6.6620    2.4560    0.4720 o         1 MOL     -0.515688
    144 C45         6.7470    0.8870   -2.5210 c3        1 MOL      0.007753
    145 C46         6.6080    2.3870   -2.9220 c3        1 MOL     -0.176945
    146 C47         6.3260    2.7550   -4.3970 c3        1 MOL      0.210141
    147 C48         6.6900    4.1990   -4.4420 c3        1 MOL     -0.109348
    148 N13         6.4010    4.7100   -5.8170 n4        1 MOL     -0.141355
    149 H67         6.7670   -1.3400   -1.6660 hn        1 MOL      0.181525
    150 H68         8.1640    1.0880   -0.9750 h1        1 MOL      0.107484
    151 H69         5.7390    0.5150   -2.6690 hc        1 MOL     -0.004905
    152 H70         7.4440    0.2710   -3.0920 hc        1 MOL     -0.004905
    153 H71         7.5510    2.8380   -2.6220 hc        1 MOL      0.057666
    154 H72         5.8450    2.8220   -2.2740 hc        1 MOL      0.057666
    155 H73         5.3190    2.4950   -4.7160 hc        1 MOL     -0.014255
    156 H74         6.8870    2.1890   -5.1350 hc        1 MOL     -0.014255
    157 H75         7.7640    4.2890   -4.3080 hx        1 MOL      0.110158
    158 H76         6.1430    4.7810   -3.7100 hx        1 MOL      0.110158
    159 H77         6.8280    4.1880   -6.5670 hn        1 MOL      0.235751
    160 H78         5.4380    4.8890   -6.0370 hn        1 MOL      0.235751
    161 H79         6.8670    5.5860   -6.0110 hn        1 MOL      0.235751
    162 N14         5.0710    0.8580    0.1120 n         1 MOL      0.094025
    163 C49         4.1410    1.4540    1.0870 c3        1 MOL     -0.141227
    164 C50         4.5960    1.2310    2.5320 c         1 MOL      0.413724
    165 O22         4.4990    2.0920    3.3960 o         1 MOL     -0.553370
    166 C51         2.7620    0.7750    0.8910 c3        1 MOL      0.212650
    167 C52         2.0170    1.4200   -0.2210 c3        1 MOL     -0.263231
    168 C53         0.6870    0.9070   -0.3670 c         1 MOL      0.783763
    169 O23        -0.3320    1.6390   -0.6240 o         1 MOL     -0.737235
    170 O24         0.5620   -0.3650   -0.3850 o         1 MOL     -0.737235
    171 H80         4.7480    0.0340   -0.3790 hn        1 MOL     -0.061593
    172 H81         4.0910    2.5070    0.8270 h1        1 MOL      0.084089
    173 H82         2.2380    0.8400    1.8450 hc        1 MOL      0.037666
    174 H83         2.8950   -0.2940    0.7250 hc        1 MOL      0.037666
    175 H84         2.5070    1.1790   -1.1700 hc        1 MOL      0.021401
    176 H85         2.0290    2.4910   -0.0490 hc        1 MOL      0.021401
    177 N15         5.2570    0.1220    2.8580 n         1 MOL      0.017787
    178 C54         5.9330   -0.0440    4.1630 c3        1 MOL     -0.511295
    179 H86         6.5160    0.8490    4.3860 h1        1 MOL      0.165664
    180 H87         5.1870   -0.1960    4.9420 h1        1 MOL      0.165664
    181 H88         6.5970   -0.9080    4.1220 h1        1 MOL      0.165664
    182 H89         5.3660   -0.6150    2.1700 hn        1 MOL      0.077082
    183 Ca1        -1.8960   -0.4640   -1.2560 Ca        1 MOL      1.718135
    184 O25        -0.4510   -0.1490   -3.5420 oh        1 MOL     -0.840892
    185 H90        -0.8260    0.4780   -4.1680 ho        1 MOL      0.391089
    186 H91         0.0490   -0.7560   -4.0830 ho        1 MOL      0.391089
    187 O26        -1.2110   -3.2470   -2.1730 oh        1 MOL     -0.840892
    188 H92        -1.0110   -3.6260   -3.0280 ho        1 MOL      0.391089
    189 H93        -1.9940   -3.7260   -1.8810 ho        1 MOL      0.391089
@<TRIPOS>BOND
     1    1    2 1   
     2    1    4 1   
     3    1    5 1   
     4    1    6 1   
     5    2    3 2   
     6    2    7 1   
     7    7    8 1   
     8    7   15 1   
     9    8    9 1   
    10    8   11 1   
    11    8   16 1   
    12    9   10 2   
    13    9   19 1   
    14   11   12 1   
    15   11   17 1   
    16   11   18 1   
    17   12   13 1   
    18   12   14 1   
    19   19   20 1   
    20   19   28 1   
    21   20   21 1   
    22   20   23 1   
    23   20   29 1   
    24   21   22 2   
    25   21   41 1   
    26   23   24 1   
    27   23   30 1   
    28   23   31 1   
    29   24   25 1   
    30   24   32 1   
    31   24   33 1   
    32   25   26 1   
    33   25   34 1   
    34   25   35 1   
    35   26   27 1   
    36   26   36 1   
    37   26   37 1   
    38   27   38 1   
    39   27   39 1   
    40   27   40 1   
    41   41   42 1   
    42   41   49 1   
    43   42   43 1   
    44   42   45 1   
    45   42   50 1   
    46   43   44 2   
    47   43   53 1   
    48   45   46 1   
    49   45   51 1   
    50   45   52 1   
    51   46   47 1   
    52   46   48 1   
    53   53   54 1   
    54   53   57 1   
    55   54   55 1   
    56   54   58 1   
    57   54   59 1   
    58   55   56 2   
    59   55   60 1   
    60   60   61 1   
    61   60   68 1   
    62   61   62 1   
    63   61   64 1   
    64   61   69 1   
    65   62   63 2   
    66   62   72 1   
    67   64   65 1   
    68   64   70 1   
    69   64   71 1   
    70   65   66 1   
    71   65   67 1   
    72   72   73 1   
    73   72   76 1   
    74   73   74 1   
    75   73   77 1   
    76   73   78 1   
    77   74   75 2   
    78   74   79 1   
    79   79   80 1   
    80   79   86 1   
    81   80   81 1   
    82   80   83 1   
    83   80   87 1   
    84   81   82 2   
    85   81   93 1   
    86   83   84 1   
    87   83   85 1   
    88   83   88 1   
    89   84   90 1   
    90   84   91 1   
    91   84   92 1   
    92   85   89 1   
    93   93   94 1   
    94   93  101 1   
    95   94   95 1   
    96   94   97 1   
    97   94  102 1   
    98   95   96 2   
    99   95  112 1   
   100   97   98 1   
   101   97   99 1   
   102   97  103 1   
   103   98  100 1   
   104   98  104 1   
   105   98  105 1   
   106   99  106 1   
   107   99  107 1   
   108   99  108 1   
   109  100  109 1   
   110  100  110 1   
   111  100  111 1   
   112  112  113 1   
   113  112  119 1   
   114  113  114 1   
   115  113  116 1   
   116  113  120 1   
   117  114  115 2   
   118  114  126 1   
   119  116  117 1   
   120  116  118 1   
   121  116  121 1   
   122  117  123 1   
   123  117  124 1   
   124  117  125 1   
   125  118  122 1   
   126  126  127 1   
   127  126  133 1   
   128  127  128 1   
   129  127  130 1   
   130  127  134 1   
   131  128  129 2   
   132  128  140 1   
   133  130  131 1   
   134  130  132 1   
   135  130  135 1   
   136  131  137 1   
   137  131  138 1   
   138  131  139 1   
   139  132  136 1   
   140  140  141 1   
   141  140  149 1   
   142  141  142 1   
   143  141  144 1   
   144  141  150 1   
   145  142  143 2   
   146  142  162 1   
   147  144  145 1   
   148  144  151 1   
   149  144  152 1   
   150  145  146 1   
   151  145  153 1   
   152  145  154 1   
   153  146  147 1   
   154  146  155 1   
   155  146  156 1   
   156  147  148 1   
   157  147  157 1   
   158  147  158 1   
   159  148  159 1   
   160  148  160 1   
   161  148  161 1   
   162  162  163 1   
   163  162  171 1   
   164  163  164 1   
   165  163  166 1   
   166  163  172 1   
   167  164  165 2   
   168  164  177 1   
   169  166  167 1   
   170  166  173 1   
   171  166  174 1   
   172  167  168 1   
   173  167  175 1   
   174  167  176 1   
   175  168  169 1   
   176  168  170 1   
   177  177  178 1   
   178  177  182 1   
   179  178  179 1   
   180  178  180 1   
   181  178  181 1   
   182  184  185 1   
   183  184  186 1   
   184  187  188 1   
   185  187  189 1   
@<TRIPOS>SUBSTRUCTURE
     1 MOL         1 TEMP              0 ****  ****    0 ROOT
