@<TRIPOS>MOLECULE
MOL
  186   183     1     0     0
SMALL
resp


@<TRIPOS>ATOM
      1 C1          0.4330   -2.2670    6.5010 c3        1 MOL     -0.323438
      2 C2          0.7110   -2.1760    4.9620 c         1 MOL      0.745595
      3 O1         -0.1560   -2.4550    4.1700 o         1 MOL     -0.541633
      4 H1         -0.6160   -2.0420    6.6940 hc        1 MOL      0.077069
      5 H2          0.6590   -3.2740    6.8520 hc        1 MOL      0.077069
      6 H3          1.0600   -1.5480    7.0270 hc        1 MOL      0.077069
      7 N1          1.8790   -1.6280    4.5190 n         1 MOL     -0.668286
      8 C3          2.4000   -1.6060    3.0890 c3        1 MOL      0.128931
      9 C4          2.7970   -2.9820    2.5840 c         1 MOL      0.547508
     10 O2          3.3910   -3.7480    3.3140 o         1 MOL     -0.602586
     11 C5          3.5740   -0.5750    3.0560 c3        1 MOL     -0.102184
     12 C6          4.2490   -0.4620    1.6840 c         1 MOL      0.738859
     13 O3          5.2980    0.2050    1.6140 o         1 MOL     -0.691468
     14 O4          3.8310   -0.9960    0.5990 o         1 MOL     -0.691468
     15 H4          2.4820   -1.2020    5.2060 hn        1 MOL      0.322741
     16 H5          1.6000   -1.2430    2.4350 h1        1 MOL      0.041870
     17 H6          4.3960   -0.7750    3.7430 hc        1 MOL      0.026397
     18 H7          3.2490    0.4350    3.3350 hc        1 MOL      0.026397
     19 N2          2.5380   -3.4300    1.3450 n         1 MOL     -0.094638
     20 C7          2.8540   -4.7460    0.8070 c3        1 MOL      0.026942
     21 C8          4.0500   -4.8480   -0.1840 c         1 MOL      0.379598
     22 O5          4.9290   -5.7060   -0.0800 o         1 MOL     -0.525858
     23 C9          1.5520   -5.4770    0.2890 c3        1 MOL      0.161039
     24 C10         0.4010   -5.4920    1.3370 c3        1 MOL      0.095776
     25 C11         1.9240   -6.9100   -0.2370 c3        1 MOL     -0.461622
     26 C12         0.5360   -6.3050    2.6100 c3        1 MOL     -0.146556
     27 H8          2.1420   -2.7470    0.7150 hn        1 MOL     -0.016569
     28 H9          3.1180   -5.3820    1.6510 h1        1 MOL      0.048306
     29 H10         1.2590   -5.0150   -0.6570 hc        1 MOL      0.000107
     30 H11        -0.4840   -5.8830    0.8470 hc        1 MOL     -0.018842
     31 H12         0.2170   -4.4640    1.6570 hc        1 MOL     -0.018842
     32 H13         2.3170   -7.5270    0.5760 hc        1 MOL      0.106743
     33 H14         1.0500   -7.2640   -0.7710 hc        1 MOL      0.106743
     34 H15         2.6820   -6.9050   -1.0310 hc        1 MOL      0.106743
     35 H16         0.5070   -7.3710    2.3880 hc        1 MOL      0.027128
     36 H17         1.4210   -6.1790    3.2420 hc        1 MOL      0.027128
     37 H18        -0.2700   -6.0270    3.2880 hc        1 MOL      0.027128
     38 N3          4.1140   -3.9170   -1.1500 n         1 MOL     -0.247310
     39 C13         5.1760   -3.9120   -2.1440 c3        1 MOL      0.082071
     40 C14         6.4700   -3.3060   -1.6100 c         1 MOL      0.419595
     41 O6          7.5410   -3.8150   -1.8490 o         1 MOL     -0.576693
     42 C15         4.7140   -3.2570   -3.5060 c3        1 MOL     -0.416736
     43 C16         4.0920   -1.9240   -3.4090 c         1 MOL      0.822754
     44 O7          4.0300   -1.2690   -2.3360 o         1 MOL     -0.714203
     45 O8          3.6090   -1.4240   -4.4560 o         1 MOL     -0.714203
     46 H19         3.4900   -3.1400   -1.3350 hn        1 MOL      0.224199
     47 H20         5.4110   -4.9330   -2.4340 h1        1 MOL      0.066401
     48 H21         3.9960   -3.9080   -4.0070 hc        1 MOL      0.110408
     49 H22         5.6070   -3.1200   -4.1120 hc        1 MOL      0.110408
     50 N4          6.2930   -2.3220   -0.7580 n         1 MOL     -0.004384
     51 C17         7.2650   -1.6560    0.1540 c3        1 MOL     -0.139972
     52 C18         7.8430   -0.4640   -0.5270 c         1 MOL      0.491729
     53 O9          9.0410   -0.1110   -0.3770 o         1 MOL     -0.611599
     54 H23         5.3360   -2.0620   -0.5540 hn        1 MOL      0.061425
     55 H24         8.0530   -2.3630    0.3920 h1        1 MOL      0.086001
     56 H25         6.8780   -1.3790    1.1290 h1        1 MOL      0.086001
     57 N5          7.0290    0.2890   -1.2300 n         1 MOL     -0.301601
     58 C19         7.3490    1.6470   -1.6940 c3        1 MOL      0.088230
     59 C20         7.2890    2.7170   -0.5840 c         1 MOL      0.410969
     60 O10         7.7360    3.8370   -0.7710 o         1 MOL     -0.566544
     61 C21         6.5030    2.0310   -2.9610 c3        1 MOL     -0.398946
     62 C22         4.9970    2.0590   -2.7250 c         1 MOL      0.920808
     63 O11         4.5010    1.7120   -1.6400 o         1 MOL     -0.749729
     64 O12         4.3030    2.4480   -3.6640 o         1 MOL     -0.749729
     65 H26         6.0620   -0.0010   -1.2440 hn        1 MOL      0.172714
     66 H27         8.4010    1.6720   -2.0020 h1        1 MOL      0.083262
     67 H28         6.6720    1.2740   -3.7300 hc        1 MOL      0.099003
     68 H29         6.7250    3.0260   -3.3310 hc        1 MOL      0.099003
     69 N6          6.8400    2.3660    0.6200 n         1 MOL     -0.143603
     70 C23         6.7390    3.2550    1.8030 c3        1 MOL     -0.337534
     71 C24         5.4460    3.9580    1.9360 c         1 MOL      0.611223
     72 O13         5.4460    4.9040    2.7830 o         1 MOL     -0.610140
     73 H30         6.5700    1.4110    0.8080 hn        1 MOL      0.246471
     74 H31         7.4870    4.0300    1.6030 h1        1 MOL      0.139719
     75 H32         6.9680    2.6760    2.7020 h1        1 MOL      0.139719
     76 N7          4.4240    3.6190    1.1610 n         1 MOL     -0.299704
     77 C25         3.0420    4.1080    1.2790 c3        1 MOL     -0.120750
     78 C26         2.0500    2.8970    1.3600 c         1 MOL      0.643714
     79 O14         2.2540    1.7950    0.8340 o         1 MOL     -0.638931
     80 C27         2.6100    5.0110    0.0720 c3        1 MOL      0.063057
     81 C28         3.4900    6.1640   -0.2240 c3        1 MOL     -0.256340
     82 C29         2.7320    7.3050   -0.9030 c         1 MOL      0.676004
     83 N8          3.1710    7.6770   -2.1010 n         1 MOL     -0.833156
     84 O15         1.8620    7.8750   -0.3090 o         1 MOL     -0.578843
     85 H33         4.5740    2.7300    0.7010 hn        1 MOL      0.219467
     86 H34         2.9490    4.7190    2.1700 h1        1 MOL      0.074712
     87 H35         1.5720    5.3520    0.1420 hc        1 MOL      0.036528
     88 H36         2.5250    4.3790   -0.8090 hc        1 MOL      0.036528
     89 H37         4.3020    5.8200   -0.8730 hc        1 MOL      0.096487
     90 H38         3.8700    6.5690    0.7050 hc        1 MOL      0.096487
     91 H39         3.7100    7.0290   -2.6580 hn        1 MOL      0.371302
     92 H40         2.7040    8.5000   -2.4490 hn        1 MOL      0.371302
     93 N9          0.8760    3.2140    1.9110 n         1 MOL     -0.446754
     94 C30        -0.3640    2.4160    1.9210 c3        1 MOL      0.080775
     95 C31        -1.4060    2.9510    0.8720 c         1 MOL      0.325187
     96 O16        -1.7560    4.1150    0.9420 o         1 MOL     -0.540819
     97 C32        -0.8790    2.3830    3.3960 c3        1 MOL      0.405986
     98 C33        -2.1660    1.5090    3.5120 c3        1 MOL     -0.303148
     99 C34         0.0690    1.8130    4.4310 c3        1 MOL     -0.303148
    100 H41         0.8700    4.1660    2.2590 hn        1 MOL      0.252481
    101 H42        -0.1820    1.3660    1.6930 h1        1 MOL      0.078117
    102 H43        -1.1760    3.3810    3.7150 hc        1 MOL     -0.067099
    103 H44        -2.9490    2.0090    2.9410 hc        1 MOL      0.048854
    104 H45        -1.9520    0.5340    3.0640 hc        1 MOL      0.048854
    105 H46        -2.4250    1.5170    4.5720 hc        1 MOL      0.048854
    106 H47         0.3450    0.7790    4.2320 hc        1 MOL      0.048854
    107 H48         1.0000    2.3840    4.4340 hc        1 MOL      0.048854
    108 H49        -0.3720    1.8930    5.4220 hc        1 MOL      0.048854
    109 N10        -1.8370    2.0740   -0.0350 n         1 MOL     -0.103066
    110 C35        -2.9750    2.3770   -0.8900 c3        1 MOL      0.217989
    111 C36        -4.2720    1.8630   -0.2290 c         1 MOL      0.272597
    112 O17        -4.2220    1.0200    0.6670 o         1 MOL     -0.245465
    113 C37        -2.6960    1.9820   -2.3600 c3        1 MOL     -0.289372
    114 C38        -3.3670    0.7510   -2.8280 c         1 MOL      0.636892
    115 N11        -2.6910   -0.3520   -2.7160 n         1 MOL     -0.667986
    116 O18        -4.5370    0.8390   -3.1990 o         1 MOL     -0.580964
    117 H50        -1.3920    1.1720   -0.1160 hn        1 MOL      0.073935
    118 H51        -3.0560    3.4660   -0.9810 h1        1 MOL      0.022152
    119 H52        -1.6110    1.9400   -2.4530 hc        1 MOL      0.083972
    120 H53        -3.1360    2.7270   -3.0310 hc        1 MOL      0.083972
    121 H54        -1.7100   -0.3080   -2.4630 hn        1 MOL      0.357664
    122 H55        -3.0960   -1.1850   -3.1220 hn        1 MOL      0.357664
    123 N12        -5.4350    2.1930   -0.7890 n         1 MOL     -0.470066
    124 C39        -6.7620    1.7660   -0.2960 c3        1 MOL      0.091994
    125 C40        -6.9520    0.2330   -0.2320 c         1 MOL      0.523923
    126 O19        -7.4610   -0.3180    0.7670 o         1 MOL     -0.513826
    127 C41        -7.8680    2.3820   -1.1330 c3        1 MOL     -0.101012
    128 C42        -9.1910    2.2350   -0.4150 ca        1 MOL     -0.080926
    129 C43        -9.5140    2.8300    0.7830 ca        1 MOL     -0.037743
    130 C44       -10.1500    1.3940   -1.0120 ca        1 MOL     -0.037743
    131 C45       -10.8610    2.7830    1.2850 ca        1 MOL     -0.354446
    132 C46       -11.4840    1.3300   -0.5290 ca        1 MOL     -0.354446
    133 C47       -11.8090    1.9980    0.6580 ca        1 MOL      0.431087
    134 O20       -13.0640    1.9640    1.1800 oh        1 MOL     -0.535033
    135 H56        -5.3690    2.8050   -1.5880 hn        1 MOL      0.296653
    136 H57        -6.8390    2.0440    0.7530 h1        1 MOL      0.071579
    137 H58        -7.9510    1.8480   -2.0740 hc        1 MOL      0.063247
    138 H59        -7.6710    3.4100   -1.4320 hc        1 MOL      0.063247
    139 H60        -8.7290    3.4010    1.2510 ha        1 MOL      0.113502
    140 H61        -9.9750    0.7220   -1.8390 ha        1 MOL      0.113502
    141 H62       -11.1340    3.2790    2.2040 ha        1 MOL      0.155308
    142 H63       -12.2540    0.7280   -0.9920 ha        1 MOL      0.155308
    143 H64       -13.5800    1.2760    0.7440 ho        1 MOL      0.368433
    144 N13        -6.3710   -0.4460   -1.2450 n         1 MOL     -0.384648
    145 C48        -6.3990   -1.8730   -1.2240 c3        1 MOL      0.002928
    146 C49        -5.5940   -2.4460   -0.1370 c         1 MOL      0.336030
    147 O21        -6.0050   -3.4280    0.4270 o         1 MOL     -0.505264
    148 C50        -6.0030   -2.4030   -2.6040 c3        1 MOL      0.094288
    149 C51        -7.0910   -2.4260   -3.6810 c3        1 MOL     -0.190295
    150 C52        -6.5560   -3.0200   -4.9760 c         1 MOL      0.669706
    151 O22        -6.6040   -4.2900   -5.0280 o         1 MOL     -0.726049
    152 O23        -6.1100   -2.3090   -5.9240 o         1 MOL     -0.726049
    153 H65        -5.9020    0.0350   -1.9930 hn        1 MOL      0.309440
    154 H66        -7.4140   -2.2260   -1.0720 h1        1 MOL      0.104419
    155 H67        -5.5320   -3.3810   -2.5300 hc        1 MOL      0.008505
    156 H68        -5.2550   -1.7350   -3.0280 hc        1 MOL      0.008505
    157 H69        -7.4270   -1.4020   -3.8600 hc        1 MOL     -0.002291
    158 H70        -7.9550   -2.9240   -3.2310 hc        1 MOL     -0.002291
    159 N14        -4.4690   -1.8620    0.3320 n         1 MOL     -0.107125
    160 C53        -3.6490   -2.3940    1.4470 c3        1 MOL      0.026331
    161 C54        -4.2360   -1.9010    2.7820 c         1 MOL      0.425364
    162 O24        -4.2400   -2.6080    3.7440 o         1 MOL     -0.559658
    163 C55        -2.1820   -1.7560    1.2460 c3        1 MOL     -0.013492
    164 C56        -1.3800   -2.2870    0.0800 c3        1 MOL      0.208239
    165 C57        -0.1860   -1.3480   -0.2600 c         1 MOL      0.618747
    166 O25         0.9500   -1.7780   -0.3020 o         1 MOL     -0.706491
    167 O26        -0.3300   -0.1810   -0.6480 o         1 MOL     -0.706491
    168 H71        -4.0340   -1.0350   -0.0630 hn        1 MOL     -0.032581
    169 H72        -3.5660   -3.4790    1.4930 h1        1 MOL      0.075046
    170 H73        -1.6480   -1.8940    2.1860 hc        1 MOL      0.028959
    171 H74        -2.2910   -0.6740    1.1520 hc        1 MOL      0.028959
    172 H75        -2.0130   -2.4210   -0.7920 hc        1 MOL     -0.066645
    173 H76        -1.0340   -3.2990    0.2740 hc        1 MOL     -0.066645
    174 N15        -4.9470   -0.7250    2.7620 n         1 MOL      0.000820
    175 C58        -5.7870   -0.2340    3.8940 c3        1 MOL     -0.171247
    176 H77        -6.8200   -0.1320    3.5620 h1        1 MOL      0.063111
    177 H78        -5.7400   -0.9470    4.7180 h1        1 MOL      0.063111
    178 H79        -5.4170    0.7340    4.2300 h1        1 MOL      0.063111
    179 H80        -4.9460   -0.2690    1.8530 hn        1 MOL      0.009818
    180 Ca1         2.2800    0.2020   -1.2310 Ca        1 MOL      1.777327
    181 O27         1.8620    2.3980   -2.4380 oh        1 MOL     -0.925770
    182 H81         1.1910    2.9210   -2.8790 ho        1 MOL      0.418216
    183 H82         2.5910    2.3700   -3.0570 ho        1 MOL      0.418216
    184 O28         1.2950   -0.3830   -3.6930 oh        1 MOL     -0.925770
    185 H83         0.6340   -0.6220   -4.3480 ho        1 MOL      0.418216
    186 H84         2.1340   -0.6370   -4.0880 ho        1 MOL      0.418216
@<TRIPOS>BOND
     1    1    2 1   
     2    1    4 1   
     3    1    5 1   
     4    1    6 1   
     5    2    3 2   
     6    2    7 1   
     7    7    8 1   
     8    7   15 1   
     9    8    9 1   
    10    8   11 1   
    11    8   16 1   
    12    9   10 2   
    13    9   19 1   
    14   11   12 1   
    15   11   17 1   
    16   11   18 1   
    17   12   13 1   
    18   12   14 1   
    19   19   20 1   
    20   19   27 1   
    21   20   21 1   
    22   20   23 1   
    23   20   28 1   
    24   21   22 2   
    25   21   38 1   
    26   23   24 1   
    27   23   25 1   
    28   23   29 1   
    29   24   26 1   
    30   24   30 1   
    31   24   31 1   
    32   25   32 1   
    33   25   33 1   
    34   25   34 1   
    35   26   35 1   
    36   26   36 1   
    37   26   37 1   
    38   38   39 1   
    39   38   46 1   
    40   39   40 1   
    41   39   42 1   
    42   39   47 1   
    43   40   41 2   
    44   40   50 1   
    45   42   43 1   
    46   42   48 1   
    47   42   49 1   
    48   43   44 1   
    49   43   45 1   
    50   50   51 1   
    51   50   54 1   
    52   51   52 1   
    53   51   55 1   
    54   51   56 1   
    55   52   53 2   
    56   52   57 1   
    57   57   58 1   
    58   57   65 1   
    59   58   59 1   
    60   58   61 1   
    61   58   66 1   
    62   59   60 2   
    63   59   69 1   
    64   61   62 1   
    65   61   67 1   
    66   61   68 1   
    67   62   63 1   
    68   62   64 1   
    69   69   70 1   
    70   69   73 1   
    71   70   71 1   
    72   70   74 1   
    73   70   75 1   
    74   71   72 2   
    75   71   76 1   
    76   76   77 1   
    77   76   85 1   
    78   77   78 1   
    79   77   80 1   
    80   77   86 1   
    81   78   79 2   
    82   78   93 1   
    83   80   81 1   
    84   80   87 1   
    85   80   88 1   
    86   81   82 1   
    87   81   89 1   
    88   81   90 1   
    89   82   83 1   
    90   82   84 2   
    91   83   91 1   
    92   83   92 1   
    93   93   94 1   
    94   93  100 1   
    95   94   95 1   
    96   94   97 1   
    97   94  101 1   
    98   95   96 2   
    99   95  109 1   
   100   97   98 1   
   101   97   99 1   
   102   97  102 1   
   103   98  103 1   
   104   98  104 1   
   105   98  105 1   
   106   99  106 1   
   107   99  107 1   
   108   99  108 1   
   109  109  110 1   
   110  109  117 1   
   111  110  111 1   
   112  110  113 1   
   113  110  118 1   
   114  111  112 2   
   115  111  123 1   
   116  113  114 1   
   117  113  119 1   
   118  113  120 1   
   119  114  115 1   
   120  114  116 2   
   121  115  121 1   
   122  115  122 1   
   123  123  124 1   
   124  123  135 1   
   125  124  125 1   
   126  124  127 1   
   127  124  136 1   
   128  125  126 2   
   129  125  144 1   
   130  127  128 1   
   131  127  137 1   
   132  127  138 1   
   133  128  129 ar  
   134  128  130 ar  
   135  129  131 ar  
   136  129  139 1   
   137  130  132 ar  
   138  130  140 1   
   139  131  133 ar  
   140  131  141 1   
   141  132  133 ar  
   142  132  142 1   
   143  133  134 1   
   144  134  143 1   
   145  144  145 1   
   146  144  153 1   
   147  145  146 1   
   148  145  148 1   
   149  145  154 1   
   150  146  147 2   
   151  146  159 1   
   152  148  149 1   
   153  148  155 1   
   154  148  156 1   
   155  149  150 1   
   156  149  157 1   
   157  149  158 1   
   158  150  151 1   
   159  150  152 1   
   160  159  160 1   
   161  159  168 1   
   162  160  161 1   
   163  160  163 1   
   164  160  169 1   
   165  161  162 2   
   166  161  174 1   
   167  163  164 1   
   168  163  170 1   
   169  163  171 1   
   170  164  165 1   
   171  164  172 1   
   172  164  173 1   
   173  165  166 1   
   174  165  167 1   
   175  174  175 1   
   176  174  179 1   
   177  175  176 1   
   178  175  177 1   
   179  175  178 1   
   180  181  182 1   
   181  181  183 1   
   182  184  185 1   
   183  184  186 1   
@<TRIPOS>SUBSTRUCTURE
     1 MOL         1 TEMP              0 ****  ****    0 ROOT
