@<TRIPOS>MOLECULE
MOL
  175   173     1     0     0
SMALL
resp


@<TRIPOS>ATOM
      1 C1          0.5370    3.6940    5.4860 c3        1 MOL     -0.418262
      2 C2         -0.0160    3.9880    4.1040 c         1 MOL      0.762154
      3 O1          0.6990    4.3510    3.2320 o         1 MOL     -0.550183
      4 H1         -0.2420    3.8580    6.2310 hc        1 MOL      0.092809
      5 H2          0.8710    2.6570    5.5320 hc        1 MOL      0.092809
      6 H3          1.3780    4.3560    5.6900 hc        1 MOL      0.092809
      7 N1         -1.3160    3.8620    3.9820 n         1 MOL     -0.626646
      8 C3         -1.9060    3.6440    2.6500 c3        1 MOL      0.103428
      9 C4         -2.2360    4.8590    1.6930 c         1 MOL      0.668343
     10 O2         -2.3820    5.9510    2.1880 o         1 MOL     -0.569862
     11 C5         -3.2420    2.9360    2.8810 c3        1 MOL     -0.167928
     12 C6         -4.0620    2.6280    1.5350 c         1 MOL      0.605984
     13 O3         -3.5460    1.9910    0.6090 o         1 MOL     -0.647038
     14 O4         -5.3040    2.8470    1.5380 o         1 MOL     -0.647038
     15 H4         -1.9290    3.7250    4.7670 hn        1 MOL      0.332022
     16 H5         -1.2230    3.0120    2.0770 h1        1 MOL      0.033147
     17 H6         -3.8040    3.4860    3.6330 hc        1 MOL      0.018762
     18 H7         -2.9990    1.9410    3.2580 hc        1 MOL      0.018762
     19 N2         -2.4030    4.6730    0.3600 n         1 MOL     -0.628166
     20 C7         -2.8690    5.6720   -0.5710 c3        1 MOL      0.300873
     21 C8         -3.8790    5.1700   -1.6540 c         1 MOL      0.454492
     22 O5         -4.4400    5.9740   -2.4320 o         1 MOL     -0.573073
     23 C9         -1.7060    6.4980   -1.1580 c3        1 MOL     -0.231306
     24 H8         -2.3720    3.7030    0.0750 hn        1 MOL      0.357056
     25 H9         -3.3890    6.3920    0.0680 h1        1 MOL      0.008525
     26 H10        -1.1970    5.7870   -1.8010 hc        1 MOL      0.054095
     27 H11        -2.0610    7.3350   -1.7530 hc        1 MOL      0.054095
     28 H12        -0.9630    6.8380   -0.4320 hc        1 MOL      0.054095
     29 N3         -4.2000    3.8520   -1.6830 n         1 MOL     -0.409730
     30 C10        -5.0460    3.2300   -2.8000 c3        1 MOL      0.245013
     31 C11        -6.2340    2.3750   -2.3030 c         1 MOL      0.298225
     32 O6         -7.2140    2.2900   -2.9710 o         1 MOL     -0.554961
     33 C12        -4.0410    2.3810   -3.5840 c3        1 MOL     -0.222410
     34 C13        -3.2760    1.3240   -2.7760 c         1 MOL      0.632104
     35 O7         -2.0060    1.3820   -2.6610 o         1 MOL     -0.674116
     36 O8         -3.8340    0.4840   -2.0510 o         1 MOL     -0.674116
     37 H13        -3.6650    3.1710   -1.1530 hn        1 MOL      0.274448
     38 H14        -5.3820    4.0120   -3.4810 h1        1 MOL      0.063464
     39 H15        -3.3060    3.0290   -4.0590 hc        1 MOL      0.045334
     40 H16        -4.6150    1.9120   -4.3820 hc        1 MOL      0.045334
     41 N4         -6.3340    1.8740   -1.0800 n         1 MOL      0.004869
     42 C14        -7.5110    1.0430   -0.6830 c3        1 MOL     -0.271226
     43 C15        -7.5700   -0.4350   -1.0640 c         1 MOL      0.563029
     44 O9         -8.5480   -1.1330   -0.7850 o         1 MOL     -0.619710
     45 H17        -5.5840    2.0160   -0.4240 hn        1 MOL      0.045367
     46 H18        -8.4780    1.4480   -0.9670 h1        1 MOL      0.121387
     47 H19        -7.4990    1.1010    0.4070 h1        1 MOL      0.121387
     48 N5         -6.4580   -0.9870   -1.5860 n         1 MOL     -0.290902
     49 C16        -6.2210   -2.3300   -2.0390 c3        1 MOL      0.036538
     50 C17        -6.0510   -3.4140   -0.9350 c         1 MOL      0.332900
     51 O10        -5.6320   -4.5250   -1.1580 o         1 MOL     -0.457331
     52 C18        -5.1470   -2.3540   -3.1430 c3        1 MOL     -0.278625
     53 C19        -3.7220   -2.3440   -2.5270 c         1 MOL      0.546766
     54 N6         -2.6840   -2.2680   -3.3810 n         1 MOL     -0.664631
     55 O11        -3.5490   -2.2820   -1.2640 o         1 MOL     -0.114049
     56 H20        -5.6310   -0.4060   -1.6790 hn        1 MOL      0.250329
     57 H21        -7.1810   -2.6120   -2.4910 h1        1 MOL      0.092384
     58 H22        -5.2610   -1.4690   -3.7630 hc        1 MOL      0.085954
     59 H23        -5.1070   -3.2870   -3.6990 hc        1 MOL      0.085954
     60 H24        -2.8740   -2.2420   -4.3760 hn        1 MOL      0.336735
     61 H25        -1.7220   -2.1620   -3.0690 hn        1 MOL      0.336735
     62 N7         -6.3870   -3.0850    0.2740 n         1 MOL     -0.152656
     63 C20        -6.2370   -4.0150    1.3740 c3        1 MOL     -0.203046
     64 C21        -4.8100   -4.3450    1.7900 c         1 MOL      0.551224
     65 O12        -4.6410   -5.1460    2.6790 o         1 MOL     -0.580935
     66 H26        -6.8220   -2.2090    0.4850 hn        1 MOL      0.223170
     67 H27        -6.7300   -4.9390    1.0710 h1        1 MOL      0.110945
     68 H28        -6.8830   -3.6390    2.1700 h1        1 MOL      0.110945
     69 N8         -3.7410   -3.8080    1.1400 n         1 MOL     -0.050594
     70 C22        -2.4150   -4.4520    1.3410 c3        1 MOL     -0.142323
     71 C23        -1.2900   -3.4440    1.3910 c         1 MOL      0.689085
     72 O13        -1.3440   -2.3890    0.7560 o         1 MOL     -0.570833
     73 C24        -2.0610   -5.4410    0.2330 c3        1 MOL      0.603559
     74 C25        -2.8860   -6.7230    0.2880 c3        1 MOL     -0.333940
     75 O14        -2.2350   -4.8340   -1.0350 oh        1 MOL     -0.603298
     76 H29        -3.9190   -3.1540    0.3940 hn        1 MOL     -0.348707
     77 H30        -2.3890   -5.0510    2.2560 h1        1 MOL      0.054885
     78 H31        -1.0090   -5.6840    0.3940 h1        1 MOL     -0.072221
     79 H32        -2.1850   -3.8900   -0.8650 ho        1 MOL      0.255748
     80 H33        -3.7260   -6.7770   -0.3960 hc        1 MOL      0.073022
     81 H34        -2.1980   -7.5510    0.1170 hc        1 MOL      0.073022
     82 H35        -3.2010   -6.9500    1.3060 hc        1 MOL      0.073022
     83 N9         -0.2410   -3.7530    2.1890 n         1 MOL     -0.740901
     84 C26         0.9310   -2.8900    2.1920 c3        1 MOL     -0.010333
     85 C27         1.7630   -3.0220    0.8760 c         1 MOL      0.746473
     86 O15         2.3550   -4.0790    0.6680 o         1 MOL     -0.656497
     87 C28         1.7360   -3.0800    3.4830 c3        1 MOL      0.205651
     88 C29         0.7140   -2.8560    4.6780 c3        1 MOL      0.252928
     89 C30         2.9580   -2.0820    3.4260 c3        1 MOL     -0.401815
     90 C31         1.4410   -2.5220    5.9280 c3        1 MOL     -0.255561
     91 H36        -0.2070   -4.6410    2.6490 hn        1 MOL      0.360178
     92 H37         0.5960   -1.8530    2.1660 h1        1 MOL      0.007414
     93 H38         2.0860   -4.1050    3.6140 hc        1 MOL     -0.013997
     94 H39         0.3250   -3.8650    4.8370 hc        1 MOL     -0.056338
     95 H40        -0.0570   -2.1130    4.4800 hc        1 MOL     -0.056338
     96 H41         2.6560   -1.0590    3.6300 hc        1 MOL      0.081854
     97 H42         3.7140   -2.2980    4.1810 hc        1 MOL      0.081854
     98 H43         3.5070   -2.1440    2.4850 hc        1 MOL      0.081854
     99 H44         1.8800   -1.5220    5.9370 hc        1 MOL      0.045678
    100 H45         0.6580   -2.5160    6.6870 hc        1 MOL      0.045678
    101 H46         2.2570   -3.2130    6.1080 hc        1 MOL      0.045678
    102 N10         1.8760   -1.9970    0.0780 n         1 MOL     -0.419357
    103 C32         2.6930   -1.9590   -1.1500 c3        1 MOL      0.161127
    104 C33         4.1040   -1.4610   -0.8690 c         1 MOL      0.140211
    105 O16         4.2930   -0.6840    0.0420 o         1 MOL     -0.112513
    106 C34         2.0680   -1.1200   -2.2530 c3        1 MOL     -0.321799
    107 C35         0.5450   -1.3500   -2.5830 c         1 MOL      0.683393
    108 O17        -0.3620   -1.1130   -1.7410 o         1 MOL     -0.656750
    109 O18         0.2580   -1.6430   -3.7390 o         1 MOL     -0.656750
    110 H47         1.5000   -1.1200    0.3830 hn        1 MOL      0.283442
    111 H48         2.7950   -2.9980   -1.4460 h1        1 MOL      0.053467
    112 H49         2.6420   -1.4130   -3.1360 hc        1 MOL      0.091928
    113 H50         2.2300   -0.0610   -2.0540 hc        1 MOL      0.091928
    114 N11         5.0690   -1.7940   -1.6660 n         1 MOL     -0.349854
    115 C36         6.4970   -1.4620   -1.4210 c3        1 MOL      0.051008
    116 C37         6.8500    0.0720   -1.1630 c         1 MOL      0.374192
    117 O19         7.6140    0.3030   -0.2460 o         1 MOL     -0.459175
    118 C38         7.3770   -2.0220   -2.5690 c3        1 MOL     -0.166787
    119 C39         8.7860   -1.7650   -2.2540 ca        1 MOL      0.093132
    120 C40         9.4190   -2.4310   -1.2390 ca        1 MOL     -0.143907
    121 C41         9.5120   -0.8320   -2.9660 ca        1 MOL     -0.143907
    122 C42        10.7830   -2.3680   -1.0680 ca        1 MOL     -0.115592
    123 C43        10.9010   -0.6260   -2.6720 ca        1 MOL     -0.115592
    124 C44        11.4990   -1.4110   -1.7350 ca        1 MOL     -0.108607
    125 H51         4.9530   -2.4380   -2.4330 hn        1 MOL      0.288079
    126 H52         6.7930   -1.9680   -0.4960 h1        1 MOL      0.114686
    127 H53         7.0860   -1.5970   -3.5220 hc        1 MOL      0.062590
    128 H54         7.3170   -3.1110   -2.6580 hc        1 MOL      0.062590
    129 H55         8.9080   -3.1480   -0.6140 ha        1 MOL      0.103886
    130 H56         9.0590   -0.1490   -3.6600 ha        1 MOL      0.103886
    131 H57        11.2680   -2.9770   -0.3140 ha        1 MOL      0.107292
    132 H58        11.4440    0.1750   -3.1680 ha        1 MOL      0.107292
    133 H59        12.5300   -1.2700   -1.4320 ha        1 MOL      0.096584
    134 N12         6.3440    1.1180   -1.9240 n         1 MOL      0.080024
    135 C45         6.5720    2.4790   -1.5350 c3        1 MOL     -0.039663
    136 C46         5.9100    2.7770   -0.1420 c         1 MOL      0.327264
    137 O20         6.5710    3.4950    0.6550 o         1 MOL     -0.496764
    138 C47         5.9730    3.4010   -2.6140 c3        1 MOL     -0.135960
    139 C48         5.1270    2.4260   -3.4350 c3        1 MOL      0.159917
    140 C49         5.6430    1.0130   -3.1490 c3        1 MOL     -0.089610
    141 H60         7.6550    2.5110   -1.4450 h1        1 MOL      0.057832
    142 H61         5.3600    4.2550   -2.3430 hc        1 MOL      0.054820
    143 H62         6.7300    3.6840   -3.3410 hc        1 MOL      0.054820
    144 H63         4.0760    2.5620   -3.1770 hc        1 MOL     -0.012776
    145 H64         5.1890    2.7360   -4.4760 hc        1 MOL     -0.012776
    146 H65         4.7790    0.3480   -3.2270 h1        1 MOL      0.002154
    147 H66         6.3530    0.8490   -3.9610 h1        1 MOL      0.002154
    148 N13         4.7380    2.1660    0.2900 n         1 MOL     -0.147006
    149 C50         4.1120    2.3360    1.6300 c3        1 MOL     -0.134677
    150 C51         4.9680    1.6070    2.6370 c         1 MOL      0.449540
    151 O21         5.1610    2.1060    3.7410 o         1 MOL     -0.563736
    152 C52         2.6800    1.7130    1.6430 c3        1 MOL     -0.024947
    153 C53         1.6510    2.2380    0.5370 c3        1 MOL     -0.418975
    154 C54         0.3080    1.5230    0.6010 c         1 MOL      0.801454
    155 O22        -0.6670    2.1000    0.1200 o         1 MOL     -0.732887
    156 O23         0.1940    0.3530    0.9350 o         1 MOL     -0.732887
    157 H67         4.2900    1.5330   -0.3580 hn        1 MOL      0.120745
    158 H68         4.0510    3.3850    1.9090 h1        1 MOL      0.140058
    159 H69         2.2830    1.8710    2.6460 hc        1 MOL      0.056816
    160 H70         2.7810    0.6240    1.6440 hc        1 MOL      0.056816
    161 H71         2.0220    2.0630   -0.4760 hc        1 MOL      0.146257
    162 H72         1.4360    3.2760    0.7620 hc        1 MOL      0.146257
    163 N14         5.6420    0.4580    2.3730 n         1 MOL      0.040332
    164 C55         6.6560   -0.2620    3.1730 c3        1 MOL     -0.258327
    165 H73         6.3090   -0.3530    4.2020 h1        1 MOL      0.088377
    166 H74         6.8110   -1.2570    2.7530 h1        1 MOL      0.088377
    167 H75         7.5950    0.2910    3.1540 h1        1 MOL      0.088377
    168 H76         5.4750   -0.0200    1.5090 hn        1 MOL     -0.034680
    169 Ca1        -2.0940   -0.0740   -0.1960 Ca        1 MOL      1.607247
    170 O24        -4.3890   -0.6710    1.1040 oh        1 MOL     -0.756693
    171 H77        -4.3480   -0.0060    1.7900 ho        1 MOL      0.394637
    172 H78        -5.2310   -1.0980    1.2260 ho        1 MOL      0.394637
    173 O25        -1.8720   -0.2760    2.6920 oh        1 MOL     -0.756693
    174 H79        -0.9420   -0.3090    2.4690 ho        1 MOL      0.394637
    175 H80        -1.8910   -0.0670    3.6290 ho        1 MOL      0.394637
@<TRIPOS>BOND
     1    1    2 1   
     2    1    4 1   
     3    1    5 1   
     4    1    6 1   
     5    2    3 2   
     6    2    7 1   
     7    7    8 1   
     8    7   15 1   
     9    8    9 1   
    10    8   11 1   
    11    8   16 1   
    12    9   10 2   
    13    9   19 1   
    14   11   12 1   
    15   11   17 1   
    16   11   18 1   
    17   12   13 1   
    18   12   14 1   
    19   19   20 1   
    20   19   24 1   
    21   20   21 1   
    22   20   23 1   
    23   20   25 1   
    24   21   22 2   
    25   21   29 1   
    26   23   26 1   
    27   23   27 1   
    28   23   28 1   
    29   29   30 1   
    30   29   37 1   
    31   30   31 1   
    32   30   33 1   
    33   30   38 1   
    34   31   32 2   
    35   31   41 1   
    36   33   34 1   
    37   33   39 1   
    38   33   40 1   
    39   34   35 1   
    40   34   36 1   
    41   41   42 1   
    42   41   45 1   
    43   42   43 1   
    44   42   46 1   
    45   42   47 1   
    46   43   44 2   
    47   43   48 1   
    48   48   49 1   
    49   48   56 1   
    50   49   50 1   
    51   49   52 1   
    52   49   57 1   
    53   50   51 2   
    54   50   62 1   
    55   52   53 1   
    56   52   58 1   
    57   52   59 1   
    58   53   54 1   
    59   53   55 2   
    60   54   60 1   
    61   54   61 1   
    62   62   63 1   
    63   62   66 1   
    64   63   64 1   
    65   63   67 1   
    66   63   68 1   
    67   64   65 2   
    68   64   69 1   
    69   69   70 1   
    70   69   76 1   
    71   70   71 1   
    72   70   73 1   
    73   70   77 1   
    74   71   72 2   
    75   71   83 1   
    76   73   74 1   
    77   73   75 1   
    78   73   78 1   
    79   74   80 1   
    80   74   81 1   
    81   74   82 1   
    82   75   79 1   
    83   83   84 1   
    84   83   91 1   
    85   84   85 1   
    86   84   87 1   
    87   84   92 1   
    88   85   86 2   
    89   85  102 1   
    90   87   88 1   
    91   87   89 1   
    92   87   93 1   
    93   88   90 1   
    94   88   94 1   
    95   88   95 1   
    96   89   96 1   
    97   89   97 1   
    98   89   98 1   
    99   90   99 1   
   100   90  100 1   
   101   90  101 1   
   102  102  103 1   
   103  102  110 1   
   104  103  104 1   
   105  103  106 1   
   106  103  111 1   
   107  104  105 2   
   108  104  114 1   
   109  106  107 1   
   110  106  112 1   
   111  106  113 1   
   112  107  108 1   
   113  107  109 1   
   114  114  115 1   
   115  114  125 1   
   116  115  116 1   
   117  115  118 1   
   118  115  126 1   
   119  116  117 2   
   120  116  134 1   
   121  118  119 1   
   122  118  127 1   
   123  118  128 1   
   124  119  120 ar  
   125  119  121 ar  
   126  120  122 ar  
   127  120  129 1   
   128  121  123 ar  
   129  121  130 1   
   130  122  124 ar  
   131  122  131 1   
   132  123  124 ar  
   133  123  132 1   
   134  124  133 1   
   135  134  135 1   
   136  134  140 1   
   137  135  136 1   
   138  135  138 1   
   139  135  141 1   
   140  136  137 2   
   141  136  148 1   
   142  138  139 1   
   143  138  142 1   
   144  138  143 1   
   145  139  140 1   
   146  139  144 1   
   147  139  145 1   
   148  140  146 1   
   149  140  147 1   
   150  148  149 1   
   151  148  157 1   
   152  149  150 1   
   153  149  152 1   
   154  149  158 1   
   155  150  151 2   
   156  150  163 1   
   157  152  153 1   
   158  152  159 1   
   159  152  160 1   
   160  153  154 1   
   161  153  161 1   
   162  153  162 1   
   163  154  155 1   
   164  154  156 1   
   165  163  164 1   
   166  163  168 1   
   167  164  165 1   
   168  164  166 1   
   169  164  167 1   
   170  170  171 1   
   171  170  172 1   
   172  173  174 1   
   173  173  175 1   
@<TRIPOS>SUBSTRUCTURE
     1 MOL         1 TEMP              0 ****  ****    0 ROOT
