@<TRIPOS>MOLECULE
MOL
  179   176     1     0     0
SMALL
resp


@<TRIPOS>ATOM
      1 C1         -1.9830   -1.6050    6.2300 c3        1 MOL     -0.227291
      2 C2         -1.4980   -1.6670    4.7770 c         1 MOL      0.793374
      3 O1         -2.2630   -1.4920    3.8630 o         1 MOL     -0.617533
      4 H1         -1.3690   -0.8960    6.7860 hc        1 MOL      0.050743
      5 H2         -3.0230   -1.2790    6.2530 hc        1 MOL      0.050743
      6 H3         -1.9010   -2.5920    6.6840 hc        1 MOL      0.050743
      7 N1         -0.1790   -1.9160    4.6340 n         1 MOL     -0.657453
      8 C3          0.4000   -1.9770    3.2290 c3        1 MOL      0.057556
      9 C4          0.1740   -3.4250    2.6620 c         1 MOL      0.595233
     10 O2          0.5490   -4.4880    3.1810 o         1 MOL     -0.533346
     11 C5          1.8830   -1.4970    3.2070 c3        1 MOL     -0.307122
     12 C6          2.7160   -1.5340    1.8880 c         1 MOL      0.772820
     13 O3          2.0330   -1.5390    0.8330 o         1 MOL     -0.708088
     14 O4          3.9600   -1.4450    1.9330 o         1 MOL     -0.708088
     15 H4          0.4170   -1.9720    5.4500 hn        1 MOL      0.352527
     16 H5         -0.1380   -1.2340    2.6460 h1        1 MOL      0.032993
     17 H6          2.4410   -2.1330    3.8880 hc        1 MOL      0.077868
     18 H7          1.9530   -0.4720    3.5520 hc        1 MOL      0.077868
     19 N2         -0.6560   -3.4620    1.5810 n         1 MOL     -0.273200
     20 C7         -1.1180   -4.7960    1.0730 c3        1 MOL     -0.234081
     21 C8         -0.0360   -5.4420    0.2040 c         1 MOL      0.493554
     22 O5          0.2200   -6.6180    0.3460 o         1 MOL     -0.550275
     23 C9         -2.4090   -4.6260    0.2290 c3        1 MOL     -0.019173
     24 C10        -3.1050   -5.9560   -0.1640 c3        1 MOL      0.044644
     25 C11        -4.3110   -5.6000   -1.0510 c3        1 MOL     -0.106722
     26 C12        -4.9760   -6.8420   -1.7370 c3        1 MOL      0.080138
     27 N3         -5.7540   -6.4440   -2.9620 n4        1 MOL     -0.401030
     28 H8         -0.9440   -2.6630    1.0440 hn        1 MOL      0.190852
     29 H9         -1.3590   -5.4200    1.9360 h1        1 MOL      0.158685
     30 H10        -2.2070   -4.0230   -0.6510 hc        1 MOL      0.062475
     31 H11        -3.1570   -4.1070    0.8340 hc        1 MOL      0.062475
     32 H12        -3.3510   -6.5940    0.6830 hc        1 MOL      0.015782
     33 H13        -2.3530   -6.5250   -0.7170 hc        1 MOL      0.015782
     34 H14        -3.9270   -4.9550   -1.8520 hc        1 MOL      0.047598
     35 H15        -4.9910   -5.0540   -0.3960 hc        1 MOL      0.047598
     36 H16        -5.7210   -7.2570   -1.0500 hx        1 MOL      0.085197
     37 H17        -4.2920   -7.6760   -1.8940 hx        1 MOL      0.085197
     38 H18        -6.2790   -7.2020   -3.3600 hn        1 MOL      0.332936
     39 H19        -6.4270   -5.7000   -2.8300 hn        1 MOL      0.332936
     40 H20        -5.1020   -6.0820   -3.6550 hn        1 MOL      0.332936
     41 N4          0.6290   -4.6560   -0.6510 n         1 MOL     -0.266220
     42 C13         1.7220   -5.2220   -1.4880 c3        1 MOL      0.047744
     43 C14         3.1190   -5.0160   -0.9160 c         1 MOL      0.418004
     44 O6          4.0940   -5.5940   -1.4430 o         1 MOL     -0.542264
     45 C15         1.7440   -4.6940   -2.9060 c3        1 MOL     -0.322163
     46 C16         1.7910   -3.2330   -2.9400 c         1 MOL      0.965752
     47 O7          2.0090   -2.6400   -1.9020 o         1 MOL     -0.806955
     48 O8          1.4790   -2.6400   -4.0060 o         1 MOL     -0.806955
     49 H21         0.3720   -3.6830   -0.7370 hn        1 MOL      0.210342
     50 H22         1.4970   -6.2790   -1.5820 h1        1 MOL      0.100076
     51 H23         0.8640   -5.1020   -3.3920 hc        1 MOL      0.072873
     52 H24         2.6010   -5.0430   -3.4840 hc        1 MOL      0.072873
     53 N5          3.3190   -4.3720    0.2310 n         1 MOL     -0.198391
     54 C17         4.6150   -4.4420    0.9770 c3        1 MOL     -0.127284
     55 C18         5.6760   -3.5940    0.2980 c         1 MOL      0.513280
     56 O9          6.8660   -3.8720    0.4300 o         1 MOL     -0.576853
     57 H25         2.6510   -3.7250    0.6380 hn        1 MOL      0.186380
     58 H26         5.0070   -5.4550    1.0880 h1        1 MOL      0.099281
     59 H27         4.4760   -4.0840    1.9950 h1        1 MOL      0.099281
     60 N6          5.3110   -2.5210   -0.4590 n         1 MOL     -0.227575
     61 C19         6.3030   -1.7800   -1.2660 c3        1 MOL     -0.031331
     62 C20         6.7890   -0.4950   -0.4880 c         1 MOL      0.403864
     63 O10         7.6110    0.2380   -1.0770 o         1 MOL     -0.509409
     64 C21         5.6200   -1.6240   -2.6210 c3        1 MOL     -0.101803
     65 C22         4.6560   -0.4220   -2.7360 c         1 MOL      0.616998
     66 N7          4.8320    0.4710   -3.6740 n         1 MOL     -0.716062
     67 O11         3.7870   -0.2540   -1.8920 o         1 MOL     -0.731284
     68 H28         4.3630   -2.2060   -0.3800 hn        1 MOL      0.219705
     69 H29         7.2430   -2.3300   -1.2910 h1        1 MOL      0.139500
     70 H30         5.0960   -2.4780   -3.0290 hc        1 MOL      0.060648
     71 H31         6.4620   -1.3820   -3.2540 hc        1 MOL      0.060648
     72 H32         5.4330    0.2180   -4.4370 hn        1 MOL      0.361617
     73 H33         4.1460    1.2200   -3.6880 hn        1 MOL      0.361617
     74 N8          6.3280   -0.2410    0.7460 n         1 MOL     -0.232484
     75 C23         6.7900    0.8700    1.6430 c3        1 MOL     -0.216887
     76 C24         5.8630    2.0820    1.5470 c         1 MOL      0.475036
     77 O12         6.1250    3.2180    1.9210 o         1 MOL     -0.522466
     78 H34         5.6100   -0.8180    1.1760 hn        1 MOL      0.275702
     79 H35         7.8300    1.1190    1.4530 h1        1 MOL      0.124712
     80 H36         6.6070    0.5400    2.6680 h1        1 MOL      0.124712
     81 N9          4.7340    1.8820    0.9120 n         1 MOL     -0.167623
     82 C25         3.7480    2.9130    0.6500 c3        1 MOL      0.063761
     83 C26         2.3370    2.4300    0.8970 c         1 MOL      0.369780
     84 O13         2.0390    1.2710    0.6560 o         1 MOL     -0.494865
     85 C27         3.9010    3.3790   -0.8320 c3        1 MOL      0.047335
     86 C28         4.5440    4.7140   -0.8500 ca        1 MOL     -0.156607
     87 C29         5.9570    4.7440   -0.8370 ca        1 MOL     -0.030607
     88 C30         3.8250    5.9160   -0.8940 ca        1 MOL     -0.030607
     89 C31         6.6120    5.9970   -0.9670 ca        1 MOL     -0.365350
     90 C32         4.5060    7.1780   -1.0970 ca        1 MOL     -0.365350
     91 C33         5.9000    7.2290   -1.0930 ca        1 MOL      0.430006
     92 O14         6.4790    8.4430   -1.2050 oh        1 MOL     -0.465566
     93 H37         4.4430    0.9240    0.7720 hn        1 MOL      0.189545
     94 H38         3.9180    3.7990    1.2640 h1        1 MOL      0.082235
     95 H39         2.9340    3.5170   -1.3320 hc        1 MOL      0.024856
     96 H40         4.4360    2.6280   -1.4220 hc        1 MOL      0.024856
     97 H41         6.6150    3.8930   -0.8660 ha        1 MOL      0.119965
     98 H42         2.7530    5.8590   -0.9400 ha        1 MOL      0.119965
     99 H43         7.6630    6.0590   -0.7460 ha        1 MOL      0.166882
    100 H44         3.9440    8.0790   -1.3170 ha        1 MOL      0.166882
    101 H45         5.7950    9.1070   -1.1050 ho        1 MOL      0.327634
    102 N10         1.3700    3.3030    1.2810 n         1 MOL     -0.482354
    103 C34        -0.0320    3.0300    1.5000 c3        1 MOL      0.194603
    104 C35        -0.8450    3.9110    0.5250 c         1 MOL      0.595539
    105 O15        -0.6510    5.1100    0.4680 o         1 MOL     -0.597938
    106 C36        -0.3200    3.2250    3.0290 c3        1 MOL      0.065233
    107 C37         0.1750    2.0120    3.8670 c3        1 MOL      0.001611
    108 C38        -1.8790    3.4530    3.2730 c3        1 MOL     -0.230795
    109 C39         0.1300    2.3280    5.3670 c3        1 MOL     -0.317339
    110 H46         1.6110    4.2840    1.3670 hn        1 MOL      0.249581
    111 H47        -0.2230    1.9940    1.2230 h1        1 MOL     -0.040817
    112 H48         0.1750    4.1620    3.2990 hc        1 MOL      0.036747
    113 H49         1.1890    1.7530    3.5870 hc        1 MOL      0.072549
    114 H50        -0.4980    1.1660    3.7520 hc        1 MOL      0.072549
    115 H51        -2.4800    2.5950    2.9820 hc        1 MOL      0.057083
    116 H52        -2.0850    3.7000    4.3120 hc        1 MOL      0.057083
    117 H53        -2.1750    4.3890    2.7820 hc        1 MOL      0.057083
    118 H54         0.8230    3.1470    5.5890 hc        1 MOL      0.075433
    119 H55        -0.8480    2.7040    5.6740 hc        1 MOL      0.075433
    120 H56         0.3440    1.3830    5.8710 hc        1 MOL      0.075433
    121 N11        -1.8040    3.2800   -0.1330 n         1 MOL     -0.394086
    122 C40        -2.8830    3.8490   -0.9860 c3        1 MOL      0.201403
    123 C41        -4.4080    3.8160   -0.5340 c         1 MOL      0.385557
    124 O16        -4.7020    3.3680    0.5480 o         1 MOL     -0.437769
    125 C42        -2.8230    3.2200   -2.3240 c3        1 MOL     -0.183046
    126 O17        -3.5050    2.0320   -2.3180 oh        1 MOL     -0.367548
    127 H57        -1.7920    2.2730   -0.0480 hn        1 MOL      0.252368
    128 H58        -2.7180    4.9090   -1.1530 h1        1 MOL      0.045102
    129 H59        -1.7800    3.0620   -2.6030 h1        1 MOL      0.075021
    130 H60        -3.2510    3.8740   -3.0870 h1        1 MOL      0.075021
    131 H61        -3.0890    1.4650   -2.9710 ho        1 MOL      0.353080
    132 N12        -5.2910    4.4360   -1.2610 n         1 MOL     -0.325371
    133 C43        -6.7530    4.4850   -0.8660 c3        1 MOL      0.108268
    134 C44        -7.4330    3.1340   -1.1300 c         1 MOL      0.462358
    135 O18        -8.3060    2.7120   -0.3640 o         1 MOL     -0.479846
    136 C45        -7.4000    5.7270   -1.5740 c3        1 MOL     -0.539421
    137 H62        -4.9580    5.0260   -2.0140 hn        1 MOL      0.262831
    138 H63        -6.8280    4.6540    0.2090 h1        1 MOL      0.113482
    139 H64        -6.9690    6.5430   -0.9940 hc        1 MOL      0.168342
    140 H65        -7.1650    5.6790   -2.6340 hc        1 MOL      0.168342
    141 H66        -8.4600    5.5870   -1.3720 hc        1 MOL      0.168342
    142 N13        -7.0360    2.4450   -2.2280 n         1 MOL     -0.396389
    143 C46        -7.4500    1.0130   -2.4510 c3        1 MOL      0.138229
    144 C47        -7.0100    0.1550   -1.2640 c         1 MOL      0.274420
    145 O19        -7.6780   -0.8540   -0.8350 o         1 MOL     -0.513932
    146 C48        -6.7510    0.5830   -3.7420 c3        1 MOL     -0.346793
    147 H67        -6.3010    2.8010   -2.8250 hn        1 MOL      0.256520
    148 H68        -8.5390    0.9790   -2.4980 h1        1 MOL      0.101260
    149 H69        -5.6760    0.7300   -3.7050 hc        1 MOL      0.099580
    150 H70        -6.8150   -0.5110   -3.7860 hc        1 MOL      0.099580
    151 H71        -7.2130    1.0590   -4.6040 hc        1 MOL      0.099580
    152 N14        -5.8130    0.4040   -0.7330 n         1 MOL      0.170891
    153 C49        -5.2900   -0.3470    0.4180 c3        1 MOL     -0.182623
    154 C50        -5.9920    0.0090    1.7050 c         1 MOL      0.450327
    155 O20        -6.3310   -0.8950    2.4880 o         1 MOL     -0.531997
    156 C51        -3.7760   -0.2740    0.5640 c3        1 MOL      0.264858
    157 C52        -3.1170   -0.8290   -0.6660 c3        1 MOL     -0.011679
    158 C53        -1.5280   -0.7990   -0.5740 c         1 MOL      0.663485
    159 O21        -0.9100   -1.8280   -0.9130 o         1 MOL     -0.677382
    160 O22        -0.9640    0.2180   -0.2450 o         1 MOL     -0.677382
    161 H72        -5.3670    1.2480   -1.0540 hn        1 MOL     -0.165734
    162 H73        -5.5510   -1.3970    0.2580 h1        1 MOL      0.093973
    163 H74        -3.4770   -0.8280    1.4560 hc        1 MOL     -0.025067
    164 H75        -3.4550    0.7440    0.7890 hc        1 MOL     -0.025067
    165 H76        -3.4770   -0.4650   -1.6370 hc        1 MOL     -0.068165
    166 H77        -3.5310   -1.8410   -0.6660 hc        1 MOL     -0.068165
    167 N15        -6.3030    1.2950    1.9670 n         1 MOL     -0.143422
    168 C54        -7.1570    1.7380    3.1160 c3        1 MOL     -0.233978
    169 H78        -6.5420    2.2750    3.8380 h1        1 MOL      0.101337
    170 H79        -7.9460    2.3950    2.7520 h1        1 MOL      0.101337
    171 H80        -7.6020    0.8660    3.5960 h1        1 MOL      0.101337
    172 H81        -5.8670    2.0470    1.4460 hn        1 MOL      0.165856
    173 Ca1         1.2640   -0.3370   -1.2640 Ca        1 MOL      1.763221
    174 O23         0.8960    1.8890   -2.7140 oh        1 MOL     -0.835907
    175 H82         0.1300    2.0090   -3.2760 ho        1 MOL      0.393855
    176 H83         1.6390    2.0840   -3.2880 ho        1 MOL      0.393855
    177 O24        -0.3020   -0.6840   -3.3590 oh        1 MOL     -0.835907
    178 H84         0.1290   -1.1530   -4.0700 ho        1 MOL      0.393855
    179 H85        -1.0290   -0.2220   -3.7860 ho        1 MOL      0.393855
@<TRIPOS>BOND
     1    1    2 1   
     2    1    4 1   
     3    1    5 1   
     4    1    6 1   
     5    2    3 2   
     6    2    7 1   
     7    7    8 1   
     8    7   15 1   
     9    8    9 1   
    10    8   11 1   
    11    8   16 1   
    12    9   10 2   
    13    9   19 1   
    14   11   12 1   
    15   11   17 1   
    16   11   18 1   
    17   12   13 1   
    18   12   14 1   
    19   19   20 1   
    20   19   28 1   
    21   20   21 1   
    22   20   23 1   
    23   20   29 1   
    24   21   22 2   
    25   21   41 1   
    26   23   24 1   
    27   23   30 1   
    28   23   31 1   
    29   24   25 1   
    30   24   32 1   
    31   24   33 1   
    32   25   26 1   
    33   25   34 1   
    34   25   35 1   
    35   26   27 1   
    36   26   36 1   
    37   26   37 1   
    38   27   38 1   
    39   27   39 1   
    40   27   40 1   
    41   41   42 1   
    42   41   49 1   
    43   42   43 1   
    44   42   45 1   
    45   42   50 1   
    46   43   44 2   
    47   43   53 1   
    48   45   46 1   
    49   45   51 1   
    50   45   52 1   
    51   46   47 1   
    52   46   48 1   
    53   53   54 1   
    54   53   57 1   
    55   54   55 1   
    56   54   58 1   
    57   54   59 1   
    58   55   56 2   
    59   55   60 1   
    60   60   61 1   
    61   60   68 1   
    62   61   62 1   
    63   61   64 1   
    64   61   69 1   
    65   62   63 2   
    66   62   74 1   
    67   64   65 1   
    68   64   70 1   
    69   64   71 1   
    70   65   66 1   
    71   65   67 2   
    72   66   72 1   
    73   66   73 1   
    74   74   75 1   
    75   74   78 1   
    76   75   76 1   
    77   75   79 1   
    78   75   80 1   
    79   76   77 2   
    80   76   81 1   
    81   81   82 1   
    82   81   93 1   
    83   82   83 1   
    84   82   85 1   
    85   82   94 1   
    86   83   84 2   
    87   83  102 1   
    88   85   86 1   
    89   85   95 1   
    90   85   96 1   
    91   86   87 ar  
    92   86   88 ar  
    93   87   89 ar  
    94   87   97 1   
    95   88   90 ar  
    96   88   98 1   
    97   89   91 ar  
    98   89   99 1   
    99   90   91 ar  
   100   90  100 1   
   101   91   92 1   
   102   92  101 1   
   103  102  103 1   
   104  102  110 1   
   105  103  104 1   
   106  103  106 1   
   107  103  111 1   
   108  104  105 2   
   109  104  121 1   
   110  106  107 1   
   111  106  108 1   
   112  106  112 1   
   113  107  109 1   
   114  107  113 1   
   115  107  114 1   
   116  108  115 1   
   117  108  116 1   
   118  108  117 1   
   119  109  118 1   
   120  109  119 1   
   121  109  120 1   
   122  121  122 1   
   123  121  127 1   
   124  122  123 1   
   125  122  125 1   
   126  122  128 1   
   127  123  124 2   
   128  123  132 1   
   129  125  126 1   
   130  125  129 1   
   131  125  130 1   
   132  126  131 1   
   133  132  133 1   
   134  132  137 1   
   135  133  134 1   
   136  133  136 1   
   137  133  138 1   
   138  134  135 2   
   139  134  142 1   
   140  136  139 1   
   141  136  140 1   
   142  136  141 1   
   143  142  143 1   
   144  142  147 1   
   145  143  144 1   
   146  143  146 1   
   147  143  148 1   
   148  144  145 2   
   149  144  152 1   
   150  146  149 1   
   151  146  150 1   
   152  146  151 1   
   153  152  153 1   
   154  152  161 1   
   155  153  154 1   
   156  153  156 1   
   157  153  162 1   
   158  154  155 2   
   159  154  167 1   
   160  156  157 1   
   161  156  163 1   
   162  156  164 1   
   163  157  158 1   
   164  157  165 1   
   165  157  166 1   
   166  158  159 1   
   167  158  160 1   
   168  167  168 1   
   169  167  172 1   
   170  168  169 1   
   171  168  170 1   
   172  168  171 1   
   173  174  175 1   
   174  174  176 1   
   175  177  178 1   
   176  177  179 1   
@<TRIPOS>SUBSTRUCTURE
     1 MOL         1 TEMP              0 ****  ****    0 ROOT
