@<TRIPOS>MOLECULE
MOL
  175   173     1     0     0
SMALL
resp


@<TRIPOS>ATOM
      1 C1          0.2110    4.3480    5.4610 c3        1 MOL     -0.372359
      2 C2         -0.3270    4.4260    4.0590 c         1 MOL      0.643317
      3 O1          0.4270    4.9500    3.2160 o         1 MOL     -0.537531
      4 H1         -0.5830    4.0270    6.1360 hc        1 MOL      0.085067
      5 H2          1.0300    3.6300    5.4980 hc        1 MOL      0.085067
      6 H3          0.5730    5.3290    5.7680 hc        1 MOL      0.085067
      7 N1         -1.5530    3.9670    3.8450 n         1 MOL     -0.504082
      8 C3         -2.0740    3.7180    2.4770 c3        1 MOL      0.080259
      9 C4         -2.1060    4.8460    1.4920 c         1 MOL      0.523040
     10 O2         -2.2310    6.0300    1.7730 o         1 MOL     -0.552567
     11 C5         -3.4010    3.0680    2.7280 c3        1 MOL     -0.217011
     12 C6         -4.0770    2.8320    1.3890 c         1 MOL      0.700800
     13 O3         -5.1530    3.4400    1.1750 o         1 MOL     -0.658269
     14 O4         -3.5830    2.0240    0.5660 o         1 MOL     -0.658269
     15 H4         -2.0760    3.8370    4.7000 hn        1 MOL      0.315056
     16 H5         -1.3950    2.9620    2.0690 h1        1 MOL      0.039058
     17 H6         -3.9900    3.7800    3.3010 hc        1 MOL      0.024600
     18 H7         -3.3150    2.1760    3.3470 hc        1 MOL      0.024600
     19 N2         -2.1210    4.5160    0.1890 n         1 MOL     -0.432362
     20 C7         -2.2530    5.4540   -1.0000 c3        1 MOL      0.393132
     21 C8         -3.1560    4.8660   -2.1620 c         1 MOL      0.476286
     22 O5         -3.0910    5.4160   -3.2370 o         1 MOL     -0.571259
     23 C9         -0.7750    5.7610   -1.5360 c3        1 MOL     -0.474855
     24 H8         -2.1580    3.5220   -0.0020 hn        1 MOL      0.283265
     25 H9         -2.8280    6.3330   -0.6960 h1        1 MOL     -0.000515
     26 H10        -0.5120    5.0070   -2.2750 hc        1 MOL      0.118179
     27 H11        -0.8060    6.7900   -1.8870 hc        1 MOL      0.118179
     28 H12        -0.0230    5.7390   -0.7490 hc        1 MOL      0.118179
     29 N3         -3.9740    3.8270   -1.9800 n         1 MOL     -0.291594
     30 C10        -4.7510    3.1680   -3.0450 c3        1 MOL     -0.051065
     31 C11        -5.9770    2.3680   -2.5920 c         1 MOL      0.474106
     32 O6         -6.7210    1.8810   -3.4020 o         1 MOL     -0.537408
     33 C12        -3.7680    2.1840   -3.7290 c3        1 MOL     -0.269743
     34 C13        -3.0680    1.3060   -2.7000 c         1 MOL      0.848611
     35 O7         -3.7910    0.6590   -1.9730 o         1 MOL     -0.724019
     36 O8         -1.8490    1.1960   -2.6920 o         1 MOL     -0.724019
     37 H13        -3.9730    3.3160   -1.1050 hn        1 MOL      0.024285
     38 H14        -5.1090    3.9500   -3.7200 h1        1 MOL      0.128927
     39 H15        -2.9950    2.7560   -4.2460 hc        1 MOL      0.071554
     40 H16        -4.2140    1.4200   -4.3760 hc        1 MOL      0.071554
     41 N4         -6.3150    2.2560   -1.3010 n         1 MOL     -0.290692
     42 C14        -7.5020    1.5860   -0.7630 c3        1 MOL     -0.323848
     43 C15        -7.6010    0.1290   -1.1340 c         1 MOL      0.516458
     44 O9         -8.6530   -0.5210   -1.0130 o         1 MOL     -0.633561
     45 H17        -5.5700    2.4190   -0.6300 hn        1 MOL      0.299653
     46 H18        -8.3760    2.0630   -1.2200 h1        1 MOL      0.151058
     47 H19        -7.5260    1.7410    0.3260 h1        1 MOL      0.151058
     48 N5         -6.5090   -0.4920   -1.5210 n         1 MOL     -0.052081
     49 C16        -6.3550   -1.8870   -1.9730 c3        1 MOL     -0.085817
     50 C17        -6.5170   -3.0070   -0.9470 c         1 MOL      0.543196
     51 O10        -6.7060   -4.1780   -1.2810 o         1 MOL     -0.524732
     52 C18        -5.1450   -2.0790   -2.9200 c3        1 MOL     -0.212614
     53 C19        -3.7820   -2.1570   -2.2090 c         1 MOL      0.796037
     54 N6         -2.6880   -2.4020   -2.8790 n         1 MOL     -0.733990
     55 O11        -3.6820   -1.9470   -1.0320 o         1 MOL     -0.650114
     56 H20        -5.6650    0.0690   -1.5440 hn        1 MOL      0.136382
     57 H21        -7.2230   -2.1330   -2.5760 h1        1 MOL      0.099997
     58 H22        -5.0460   -1.1610   -3.4980 hc        1 MOL      0.062026
     59 H23        -5.3030   -2.9880   -3.5030 hc        1 MOL      0.062026
     60 H24        -2.7310   -2.6110   -3.8650 hn        1 MOL      0.335080
     61 H25        -1.8280   -2.1670   -2.4170 hn        1 MOL      0.335080
     62 N7         -6.5910   -2.6790    0.3730 n         1 MOL     -0.339180
     63 C20        -6.5740   -3.6430    1.4480 c3        1 MOL     -0.100875
     64 C21        -5.2480   -4.3560    1.7280 c         1 MOL      0.576451
     65 O12        -5.2650   -5.4280    2.2940 o         1 MOL     -0.585808
     66 H26        -6.4870   -1.7010    0.6280 hn        1 MOL      0.250181
     67 H27        -7.3300   -4.4160    1.2850 h1        1 MOL      0.071946
     68 H28        -6.8020   -3.1050    2.3690 h1        1 MOL      0.071946
     69 N8         -4.0780   -3.7990    1.3350 n         1 MOL     -0.373380
     70 C22        -2.7830   -4.5240    1.5770 c3        1 MOL     -0.080530
     71 C23        -1.6520   -3.5320    1.5630 c         1 MOL      0.435448
     72 O13        -1.7510   -2.5580    0.7860 o         1 MOL     -0.340929
     73 C24        -2.5240   -5.3830    0.3270 c3        1 MOL      0.562394
     74 C25        -3.2800   -6.7480    0.3080 c3        1 MOL     -0.511036
     75 O14        -2.9150   -4.7630   -0.9050 oh        1 MOL     -0.592148
     76 H29        -4.0100   -2.9460    0.8130 hn        1 MOL      0.202257
     77 H30        -2.7130   -5.2420    2.3910 h1        1 MOL      0.078076
     78 H31        -1.4820   -5.6850    0.2890 h1        1 MOL     -0.041917
     79 H32        -2.8180   -3.8160   -0.8110 ho        1 MOL      0.284267
     80 H33        -2.9200   -7.3350   -0.5360 hc        1 MOL      0.124761
     81 H34        -3.0010   -7.3690    1.1590 hc        1 MOL      0.124761
     82 H35        -4.3150   -6.4320    0.2210 hc        1 MOL      0.124761
     83 N9         -0.5510   -3.8540    2.1770 n         1 MOL     -0.595256
     84 C26         0.5790   -2.9250    2.0290 c3        1 MOL      0.439449
     85 C27         1.2440   -3.1670    0.6970 c         1 MOL      0.198066
     86 O15         1.1450   -4.2560    0.1440 o         1 MOL     -0.491383
     87 C28         1.5240   -2.9890    3.2480 c3        1 MOL      0.103799
     88 C29         0.9940   -1.9640    4.2930 c3        1 MOL     -0.045835
     89 C30         3.0740   -2.8100    3.0070 c3        1 MOL     -0.188643
     90 C31         1.7640   -2.0540    5.6300 c3        1 MOL     -0.000399
     91 H36        -0.5380   -4.6630    2.7760 hn        1 MOL      0.312004
     92 H37         0.1970   -1.9170    1.9170 h1        1 MOL     -0.148996
     93 H38         1.4660   -3.9580    3.7490 hc        1 MOL     -0.019331
     94 H39        -0.0630   -2.1790    4.3990 hc        1 MOL     -0.000618
     95 H40         1.1140   -0.9540    3.8900 hc        1 MOL     -0.000618
     96 H41         3.3240   -1.8030    2.6870 hc        1 MOL      0.028685
     97 H42         3.6350   -3.0500    3.9020 hc        1 MOL      0.028685
     98 H43         3.4450   -3.3790    2.1570 hc        1 MOL      0.028685
     99 H44         1.2180   -1.4470    6.3450 hc        1 MOL     -0.000816
    100 H45         1.6550   -3.0090    6.1460 hc        1 MOL     -0.000816
    101 H46         2.7580   -1.6190    5.6490 hc        1 MOL     -0.000816
    102 N10         1.9300   -2.1240    0.2140 n         1 MOL     -0.081135
    103 C32         2.8360   -2.0430   -0.9490 c3        1 MOL      0.109339
    104 C33         4.2890   -1.7420   -0.6140 c         1 MOL      0.467614
    105 O16         4.6590   -1.3040    0.4580 o         1 MOL     -0.313381
    106 C34         2.1420   -1.0430   -1.9160 c3        1 MOL     -0.320635
    107 C35         0.7260   -1.4980   -2.3860 c         1 MOL      0.681779
    108 O17        -0.2930   -1.4460   -1.5720 o         1 MOL     -0.633863
    109 O18         0.5850   -1.7290   -3.6310 o         1 MOL     -0.633863
    110 H47         1.9000   -1.2560    0.7210 hn        1 MOL      0.068263
    111 H48         2.9100   -2.9980   -1.4810 h1        1 MOL      0.051374
    112 H49         2.7780   -0.8320   -2.7810 hc        1 MOL      0.072814
    113 H50         2.0640   -0.1020   -1.3710 hc        1 MOL      0.072814
    114 N11         5.1480   -1.9120   -1.5680 n         1 MOL     -0.645692
    115 C36         6.6290   -1.5880   -1.4310 c3        1 MOL      0.257653
    116 C37         6.8620   -0.1550   -1.1090 c         1 MOL      0.375737
    117 O19         7.5640    0.1490   -0.1020 o         1 MOL     -0.501917
    118 C38         7.4040   -2.0960   -2.6750 c3        1 MOL     -0.061391
    119 C39         8.8370   -1.8160   -2.4640 ca        1 MOL      0.126272
    120 C40         9.5370   -2.5690   -1.5070 ca        1 MOL     -0.252125
    121 C41         9.4820   -0.7950   -3.2500 ca        1 MOL     -0.252125
    122 C42        10.8800   -2.2720   -1.2110 ca        1 MOL     -0.040213
    123 C43        10.8420   -0.4580   -2.9790 ca        1 MOL     -0.040213
    124 C44        11.5000   -1.2580   -1.9820 ca        1 MOL     -0.173613
    125 H51         4.7810   -2.0020   -2.5030 hn        1 MOL      0.337150
    126 H52         6.9940   -2.1780   -0.5940 h1        1 MOL      0.056095
    127 H53         7.1530   -1.5410   -3.5790 hc        1 MOL      0.031626
    128 H54         7.1600   -3.1350   -2.9210 hc        1 MOL      0.031626
    129 H55         9.1260   -3.4410   -1.0210 ha        1 MOL      0.139746
    130 H56         8.9390   -0.1470   -3.9190 ha        1 MOL      0.139746
    131 H57        11.4430   -2.7210   -0.4150 ha        1 MOL      0.110708
    132 H58        11.3780    0.2900   -3.5390 ha        1 MOL      0.110708
    133 H59        12.5480   -1.0360   -1.8030 ha        1 MOL      0.098265
    134 N12         6.2830    0.8630   -1.7840 n         1 MOL     -0.096444
    135 C45         6.4770    2.2280   -1.3660 c3        1 MOL      0.082665
    136 C46         5.8560    2.5440    0.0640 c         1 MOL      0.378453
    137 O20         6.4910    3.2770    0.7650 o         1 MOL     -0.511109
    138 C47         5.6960    3.0080   -2.4250 c3        1 MOL     -0.136364
    139 C48         4.7600    2.0260   -3.2130 c3        1 MOL     -0.044201
    140 C49         5.6170    0.8080   -3.1310 c3        1 MOL     -0.067490
    141 H60         7.5090    2.5700   -1.3490 h1        1 MOL      0.043417
    142 H61         5.2110    3.8720   -1.9720 hc        1 MOL      0.050404
    143 H62         6.4330    3.4190   -3.1230 hc        1 MOL      0.050404
    144 H63         3.9100    1.9460   -2.5280 hc        1 MOL      0.062020
    145 H64         4.4970    2.3830   -4.2070 hc        1 MOL      0.062020
    146 H65         5.0230   -0.0920   -3.2790 h1        1 MOL      0.041038
    147 H66         6.3710    0.9990   -3.8890 h1        1 MOL      0.041038
    148 N13         4.7400    2.0070    0.4970 n         1 MOL     -0.152218
    149 C50         4.3140    2.1260    1.9010 c3        1 MOL     -0.257754
    150 C51         5.2400    1.3400    2.8590 c         1 MOL      0.478156
    151 O21         5.4770    1.7740    3.9950 o         1 MOL     -0.563784
    152 C52         2.8830    1.5840    1.9020 c3        1 MOL      0.012096
    153 C53         1.9010    2.2790    0.9460 c3        1 MOL     -0.027582
    154 C54         0.5830    1.5510    0.9080 c         1 MOL      0.701513
    155 O22         0.3850    0.5570    1.5860 o         1 MOL     -0.754471
    156 O23        -0.2540    1.8540   -0.0170 o         1 MOL     -0.754471
    157 H67         4.3390    1.3250   -0.1350 hn        1 MOL      0.188929
    158 H68         4.3700    3.1860    2.1590 h1        1 MOL      0.163147
    159 H69         2.5420    1.7610    2.9180 hc        1 MOL      0.074399
    160 H70         3.0010    0.5220    1.6820 hc        1 MOL      0.074399
    161 H71         2.3500    2.2780   -0.0510 hc        1 MOL      0.020560
    162 H72         1.7640    3.3110    1.2670 hc        1 MOL      0.020560
    163 N14         5.7820    0.1350    2.5300 n         1 MOL     -0.007057
    164 C55         6.7370   -0.6110    3.3410 c3        1 MOL     -0.197093
    165 H73         7.6520   -0.7710    2.7700 h1        1 MOL      0.074466
    166 H74         6.9670   -0.0470    4.2440 h1        1 MOL      0.074466
    167 H75         6.3080   -1.5750    3.6140 h1        1 MOL      0.074466
    168 H76         5.3660   -0.3480    1.7490 hn        1 MOL      0.010047
    169 Ca1        -1.9770   -0.0230    0.0060 Ca        1 MOL      1.689548
    170 O24        -4.3510   -0.5360    1.7220 oh        1 MOL     -0.773313
    171 H77        -5.1760   -0.1060    1.9110 ho        1 MOL      0.384033
    172 H78        -3.9890   -0.7380    2.5840 ho        1 MOL      0.384033
    173 O25        -1.7860   -0.3590    2.9490 oh        1 MOL     -0.773313
    174 H79        -1.8620   -0.2720    3.8970 ho        1 MOL      0.384033
    175 H80        -1.0270    0.1790    2.7160 ho        1 MOL      0.384033
@<TRIPOS>BOND
     1    1    2 1   
     2    1    4 1   
     3    1    5 1   
     4    1    6 1   
     5    2    3 2   
     6    2    7 1   
     7    7    8 1   
     8    7   15 1   
     9    8    9 1   
    10    8   11 1   
    11    8   16 1   
    12    9   10 2   
    13    9   19 1   
    14   11   12 1   
    15   11   17 1   
    16   11   18 1   
    17   12   13 1   
    18   12   14 1   
    19   19   20 1   
    20   19   24 1   
    21   20   21 1   
    22   20   23 1   
    23   20   25 1   
    24   21   22 2   
    25   21   29 1   
    26   23   26 1   
    27   23   27 1   
    28   23   28 1   
    29   29   30 1   
    30   29   37 1   
    31   30   31 1   
    32   30   33 1   
    33   30   38 1   
    34   31   32 2   
    35   31   41 1   
    36   33   34 1   
    37   33   39 1   
    38   33   40 1   
    39   34   35 1   
    40   34   36 1   
    41   41   42 1   
    42   41   45 1   
    43   42   43 1   
    44   42   46 1   
    45   42   47 1   
    46   43   44 2   
    47   43   48 1   
    48   48   49 1   
    49   48   56 1   
    50   49   50 1   
    51   49   52 1   
    52   49   57 1   
    53   50   51 2   
    54   50   62 1   
    55   52   53 1   
    56   52   58 1   
    57   52   59 1   
    58   53   54 1   
    59   53   55 2   
    60   54   60 1   
    61   54   61 1   
    62   62   63 1   
    63   62   66 1   
    64   63   64 1   
    65   63   67 1   
    66   63   68 1   
    67   64   65 2   
    68   64   69 1   
    69   69   70 1   
    70   69   76 1   
    71   70   71 1   
    72   70   73 1   
    73   70   77 1   
    74   71   72 2   
    75   71   83 1   
    76   73   74 1   
    77   73   75 1   
    78   73   78 1   
    79   74   80 1   
    80   74   81 1   
    81   74   82 1   
    82   75   79 1   
    83   83   84 1   
    84   83   91 1   
    85   84   85 1   
    86   84   87 1   
    87   84   92 1   
    88   85   86 2   
    89   85  102 1   
    90   87   88 1   
    91   87   89 1   
    92   87   93 1   
    93   88   90 1   
    94   88   94 1   
    95   88   95 1   
    96   89   96 1   
    97   89   97 1   
    98   89   98 1   
    99   90   99 1   
   100   90  100 1   
   101   90  101 1   
   102  102  103 1   
   103  102  110 1   
   104  103  104 1   
   105  103  106 1   
   106  103  111 1   
   107  104  105 2   
   108  104  114 1   
   109  106  107 1   
   110  106  112 1   
   111  106  113 1   
   112  107  108 1   
   113  107  109 1   
   114  114  115 1   
   115  114  125 1   
   116  115  116 1   
   117  115  118 1   
   118  115  126 1   
   119  116  117 2   
   120  116  134 1   
   121  118  119 1   
   122  118  127 1   
   123  118  128 1   
   124  119  120 ar  
   125  119  121 ar  
   126  120  122 ar  
   127  120  129 1   
   128  121  123 ar  
   129  121  130 1   
   130  122  124 ar  
   131  122  131 1   
   132  123  124 ar  
   133  123  132 1   
   134  124  133 1   
   135  134  135 1   
   136  134  140 1   
   137  135  136 1   
   138  135  138 1   
   139  135  141 1   
   140  136  137 2   
   141  136  148 1   
   142  138  139 1   
   143  138  142 1   
   144  138  143 1   
   145  139  140 1   
   146  139  144 1   
   147  139  145 1   
   148  140  146 1   
   149  140  147 1   
   150  148  149 1   
   151  148  157 1   
   152  149  150 1   
   153  149  152 1   
   154  149  158 1   
   155  150  151 2   
   156  150  163 1   
   157  152  153 1   
   158  152  159 1   
   159  152  160 1   
   160  153  154 1   
   161  153  161 1   
   162  153  162 1   
   163  154  155 1   
   164  154  156 1   
   165  163  164 1   
   166  163  168 1   
   167  164  165 1   
   168  164  166 1   
   169  164  167 1   
   170  170  171 1   
   171  170  172 1   
   172  173  174 1   
   173  173  175 1   
@<TRIPOS>SUBSTRUCTURE
     1 MOL         1 TEMP              0 ****  ****    0 ROOT
