@<TRIPOS>MOLECULE
MOL
  189   185     1     0     0
SMALL
resp


@<TRIPOS>ATOM
      1 C1          0.3900   -4.1590    6.0180 c3        1 MOL     -0.374056
      2 C2          0.7710   -3.6920    4.5210 c         1 MOL      0.702702
      3 O1          0.8510   -2.4910    4.2540 o         1 MOL     -0.575536
      4 H1          1.3010   -4.3950    6.5680 hc        1 MOL      0.097782
      5 H2         -0.1410   -3.3540    6.5270 hc        1 MOL      0.097782
      6 H3         -0.2460   -5.0420    5.9730 hc        1 MOL      0.097782
      7 N1          1.0790   -4.6330    3.6280 n         1 MOL     -0.586943
      8 C3          1.7590   -4.3210    2.3080 c3        1 MOL      0.233346
      9 C4          1.3680   -5.2620    1.1300 c         1 MOL      0.589413
     10 O2          0.9440   -6.4090    1.3510 o         1 MOL     -0.613281
     11 C5          3.2650   -4.2670    2.4710 c3        1 MOL     -0.239870
     12 C6          3.9510   -3.6350    1.3180 c         1 MOL      0.665589
     13 O3          5.1150   -4.0220    1.0820 o         1 MOL     -0.668542
     14 O4          3.3650   -2.8420    0.5550 o         1 MOL     -0.668542
     15 H4          1.0960   -5.6040    3.8770 hn        1 MOL      0.311264
     16 H5          1.5250   -3.3410    1.8880 h1        1 MOL     -0.013030
     17 H6          3.6570   -5.2690    2.6040 hc        1 MOL      0.044515
     18 H7          3.5310   -3.6440    3.3210 hc        1 MOL      0.044515
     19 N2          1.3560   -4.7040   -0.0480 n         1 MOL     -0.432461
     20 C7          0.8640   -5.2660   -1.2960 c3        1 MOL      0.059089
     21 C8          1.8510   -5.1050   -2.4820 c         1 MOL      0.463511
     22 O5          1.6740   -5.7490   -3.5520 o         1 MOL     -0.564109
     23 C9         -0.5380   -4.6840   -1.5520 c3        1 MOL      0.135419
     24 C10        -1.6080   -5.2950   -0.6350 c3        1 MOL     -0.183202
     25 C11        -1.0830   -4.8640   -2.9320 c3        1 MOL     -0.347939
     26 C12        -3.0180   -4.6830   -0.5210 c3        1 MOL     -0.022978
     27 H8          1.5730   -3.7180   -0.0140 hn        1 MOL      0.221212
     28 H9          0.7420   -6.3230   -1.0550 h1        1 MOL      0.060901
     29 H10        -0.4590   -3.6060   -1.4460 hc        1 MOL      0.088272
     30 H11        -1.2270   -5.2830    0.3830 hc        1 MOL      0.047723
     31 H12        -1.7420   -6.3560   -0.8350 hc        1 MOL      0.047723
     32 H13        -1.3070   -5.9220   -3.0750 hc        1 MOL      0.081549
     33 H14        -2.0620   -4.4060   -3.0290 hc        1 MOL      0.081549
     34 H15        -0.4560   -4.2800   -3.6100 hc        1 MOL      0.081549
     35 H16        -2.9370   -3.6300   -0.2510 hc        1 MOL      0.025191
     36 H17        -3.6110   -4.8120   -1.4380 hc        1 MOL      0.025191
     37 H18        -3.5600   -5.1720    0.2960 hc        1 MOL      0.025191
     38 N3          2.8150   -4.2380   -2.2730 n         1 MOL     -0.399382
     39 C13         3.5880   -3.6570   -3.4230 c3        1 MOL      0.029543
     40 C14         4.9890   -3.1360   -3.0510 c         1 MOL      0.442864
     41 O6          5.5700   -2.3450   -3.7960 o         1 MOL     -0.536775
     42 C15         2.7810   -2.6180   -4.1310 c3        1 MOL     -0.065643
     43 C16         2.3590   -1.3410   -3.3660 c         1 MOL      0.772085
     44 O7          2.7120   -1.1550   -2.1820 o         1 MOL     -0.713736
     45 O8          1.6470   -0.4650   -4.0190 o         1 MOL     -0.713736
     46 H19         2.8380   -3.8030   -1.3680 hn        1 MOL      0.264870
     47 H20         3.7210   -4.4880   -4.1130 h1        1 MOL      0.083624
     48 H21         1.8420   -2.9570   -4.5760 hc        1 MOL      0.019572
     49 H22         3.3900   -2.2600   -4.9520 hc        1 MOL      0.019572
     50 N4          5.4650   -3.2510   -1.8040 n         1 MOL     -0.372049
     51 C17         6.8660   -2.8410   -1.4460 c3        1 MOL     -0.041764
     52 C18         7.1840   -1.3060   -1.4440 c         1 MOL      0.462671
     53 O9          8.3470   -0.9810   -1.2460 o         1 MOL     -0.626406
     54 H23         4.9460   -3.8090   -1.1310 hn        1 MOL      0.257157
     55 H24         7.6100   -3.3410   -2.0690 h1        1 MOL      0.079215
     56 H25         7.0610   -3.1830   -0.4280 h1        1 MOL      0.079215
     57 N5          6.2640   -0.3930   -1.6860 n         1 MOL     -0.021634
     58 C19         6.6570    0.9510   -2.0870 c3        1 MOL     -0.018066
     59 C20         7.0810    1.9540   -1.0200 c         1 MOL      0.407666
     60 O10         7.4910    3.0730   -1.3680 o         1 MOL     -0.510431
     61 C21         5.5080    1.6380   -2.9380 c3        1 MOL     -0.459648
     62 C22         4.2180    1.8640   -2.2010 c         1 MOL      0.858563
     63 O11         3.9980    1.5590   -1.0200 o         1 MOL     -0.704867
     64 O12         3.3270    2.4260   -2.8900 o         1 MOL     -0.704867
     65 H26         5.3510   -0.7530   -1.9000 hn        1 MOL      0.078897
     66 H27         7.4850    0.7080   -2.7550 h1        1 MOL      0.102382
     67 H28         5.2100    0.9220   -3.7060 hc        1 MOL      0.133871
     68 H29         5.9190    2.5470   -3.3580 hc        1 MOL      0.133871
     69 N6          7.0610    1.5370    0.2490 n         1 MOL     -0.286118
     70 C23         7.2450    2.4580    1.4230 c3        1 MOL     -0.196875
     71 C24         6.1500    3.5070    1.7040 c         1 MOL      0.486633
     72 O13         6.3880    4.5650    2.3250 o         1 MOL     -0.575151
     73 H30         6.8810    0.5610    0.4190 hn        1 MOL      0.280307
     74 H31         8.1880    3.0030    1.4070 h1        1 MOL      0.101538
     75 H32         7.2230    1.9090    2.3720 h1        1 MOL      0.101538
     76 N7          4.9570    3.2860    1.1720 n         1 MOL     -0.121761
     77 C25         3.7680    4.0850    1.4090 c3        1 MOL     -0.338361
     78 C26         2.5960    3.2280    1.8980 c         1 MOL      0.696078
     79 O14         2.5980    2.0520    1.6880 o         1 MOL     -0.599998
     80 C27         3.4060    4.9830    0.2010 c3        1 MOL      0.307666
     81 C28         4.5060    5.9720   -0.1970 c3        1 MOL     -0.313498
     82 C29         4.0070    6.9670   -1.1900 c         1 MOL      0.554571
     83 N8          3.7670    6.5470   -2.4400 n         1 MOL     -0.696069
     84 O15         3.5130    8.0250   -0.8710 o         1 MOL     -0.561858
     85 H33         4.7710    2.4360    0.6490 hn        1 MOL      0.186896
     86 H34         4.0240    4.8080    2.1720 h1        1 MOL      0.099156
     87 H35         2.5620    5.6530    0.3760 hc        1 MOL     -0.002102
     88 H36         3.0780    4.3580   -0.6310 hc        1 MOL     -0.002102
     89 H37         5.3410    5.4870   -0.7000 hc        1 MOL      0.099896
     90 H38         4.9070    6.5770    0.6230 hc        1 MOL      0.099896
     91 H39         4.0390    5.5990   -2.6690 hn        1 MOL      0.333573
     92 H40         3.4740    7.2210   -3.1350 hn        1 MOL      0.333573
     93 N9          1.4920    3.7860    2.4440 n         1 MOL     -0.580101
     94 C30         0.1780    3.0320    2.6400 c3        1 MOL      0.034972
     95 C31        -0.7340    3.3330    1.4810 c         1 MOL      0.414223
     96 O16        -1.1940    4.4850    1.4140 o         1 MOL     -0.587396
     97 C32        -0.4430    3.4020    4.0000 c3        1 MOL      0.454672
     98 C33        -1.6990    2.5360    4.1730 c3        1 MOL     -0.352713
     99 C34         0.5370    3.2140    5.1850 c3        1 MOL     -0.352713
    100 H41         1.6760    4.6530    2.9120 hn        1 MOL      0.288981
    101 H42         0.4040    1.9750    2.7560 h1        1 MOL      0.121166
    102 H43        -0.6610    4.4530    4.1900 hc        1 MOL     -0.062644
    103 H44        -2.1950    2.8950    5.0820 hc        1 MOL      0.060949
    104 H45        -2.3470    2.5950    3.3000 hc        1 MOL      0.060949
    105 H46        -1.4100    1.4930    4.2400 hc        1 MOL      0.060949
    106 H47         0.0170    3.4880    6.0950 hc        1 MOL      0.060949
    107 H48         0.8220    2.1640    5.1960 hc        1 MOL      0.060949
    108 H49         1.3820    3.8990    5.0610 hc        1 MOL      0.060949
    109 N10        -1.1590    2.3560    0.6840 n         1 MOL     -0.170410
    110 C35        -2.2260    2.4520   -0.2580 c3        1 MOL      0.185493
    111 C36        -3.5930    2.4190    0.4390 c         1 MOL      0.152598
    112 O17        -3.7640    1.9380    1.5800 o         1 MOL     -0.248900
    113 C37        -2.1290    1.6110   -1.4540 c3        1 MOL     -0.166673
    114 C38        -3.3020    1.5900   -2.4820 c         1 MOL      0.538509
    115 N11        -3.1980    2.5530   -3.3850 n         1 MOL     -0.613903
    116 O18        -4.2950    0.8940   -2.4030 o         1 MOL     -0.500788
    117 H50        -0.6360    1.4950    0.7250 hn        1 MOL      0.157581
    118 H51        -2.2700    3.4930   -0.5810 h1        1 MOL      0.021525
    119 H52        -2.0590    0.5530   -1.1910 hc        1 MOL      0.103165
    120 H53        -1.2220    1.9440   -1.9580 hc        1 MOL      0.103165
    121 H54        -2.4250    3.2040   -3.4140 hn        1 MOL      0.292438
    122 H55        -3.9420    2.7170   -4.0550 hn        1 MOL      0.292438
    123 N12        -4.6830    2.8890   -0.2040 n         1 MOL     -0.159224
    124 C39        -6.0620    2.7540    0.3750 c3        1 MOL      0.123639
    125 C40        -6.5630    1.3650    0.7200 c         1 MOL      0.478629
    126 O19        -7.0380    1.0970    1.7650 o         1 MOL     -0.581449
    127 C41        -7.0920    3.4710   -0.4720 c3        1 MOL     -0.115993
    128 C42        -7.2820    2.9920   -1.9090 ca        1 MOL      0.111641
    129 C43        -6.6200    3.6260   -2.9850 ca        1 MOL     -0.194438
    130 C44        -8.0790    1.8760   -2.1930 ca        1 MOL     -0.194438
    131 C45        -6.7460    3.1770   -4.3080 ca        1 MOL     -0.216919
    132 C46        -8.3590    1.4990   -3.5280 ca        1 MOL     -0.216919
    133 C47        -7.6310    2.1010   -4.5630 ca        1 MOL      0.270630
    134 O20        -8.0100    1.8150   -5.8440 oh        1 MOL     -0.439499
    135 H56        -4.5810    3.1830   -1.1600 hn        1 MOL      0.101993
    136 H57        -6.0960    3.3260    1.3060 h1        1 MOL      0.029967
    137 H58        -6.7430    4.4970   -0.5880 hc        1 MOL      0.030255
    138 H59        -8.0910    3.4710   -0.0360 hc        1 MOL      0.030255
    139 H60        -6.0850    4.5500   -2.7980 ha        1 MOL      0.123796
    140 H61        -8.6060    1.3950   -1.3770 ha        1 MOL      0.123796
    141 H62        -6.4230    3.7090   -5.1870 ha        1 MOL      0.130397
    142 H63        -9.0800    0.7380   -3.7910 ha        1 MOL      0.130397
    143 H64        -7.5410    2.3290   -6.5050 ho        1 MOL      0.317536
    144 N13        -6.1050    0.3520   -0.0740 n         1 MOL      0.005199
    145 C48        -6.2890   -1.0620    0.2420 c3        1 MOL     -0.200334
    146 C49        -5.4210   -1.5150    1.4290 c         1 MOL      0.483334
    147 O21        -5.8000   -2.4980    2.0760 o         1 MOL     -0.529325
    148 C50        -6.1630   -1.9500   -0.9430 c3        1 MOL      0.199240
    149 C51        -7.3900   -2.0040   -1.9030 c3        1 MOL     -0.167704
    150 C52        -8.6170   -2.4770   -1.2790 c         1 MOL      0.669721
    151 O22        -9.5720   -1.7110   -1.2190 o         1 MOL     -0.727138
    152 O23        -8.5550   -3.6210   -0.8040 o         1 MOL     -0.727138
    153 H65        -5.6940    0.6000   -0.9610 hn        1 MOL      0.147392
    154 H66        -7.3160   -1.2100    0.5760 h1        1 MOL      0.152457
    155 H67        -5.8460   -2.9640   -0.6910 hc        1 MOL     -0.067276
    156 H68        -5.3440   -1.5550   -1.5310 hc        1 MOL     -0.067276
    157 H69        -7.2070   -2.5000   -2.8510 hc        1 MOL      0.029405
    158 H70        -7.5750   -0.9740   -2.1910 hc        1 MOL      0.029405
    159 N14        -4.3490   -0.8210    1.7830 n         1 MOL     -0.246191
    160 C53        -3.4100   -1.1970    2.9380 c3        1 MOL      0.004278
    161 C54        -3.9060   -0.6430    4.2420 c         1 MOL      0.384517
    162 O24        -3.9360   -1.2820    5.2730 o         1 MOL     -0.542967
    163 C55        -1.9330   -0.7990    2.5520 c3        1 MOL      0.023008
    164 C56        -1.5240   -1.5580    1.2980 c3        1 MOL      0.000481
    165 C57        -0.1550   -1.1510    0.8360 c         1 MOL      0.729197
    166 O25         0.3860   -1.8390   -0.0530 o         1 MOL     -0.711694
    167 O26         0.2620   -0.0100    1.1800 o         1 MOL     -0.711694
    168 H71        -4.2270    0.0920    1.3690 hn        1 MOL      0.019941
    169 H72        -3.4540   -2.2730    3.0810 h1        1 MOL      0.067634
    170 H73        -1.2390   -1.0280    3.3610 hc        1 MOL      0.010242
    171 H74        -1.9670    0.2350    2.2170 hc        1 MOL      0.010242
    172 H75        -2.1550   -1.2180    0.4850 hc        1 MOL      0.006032
    173 H76        -1.5400   -2.6410    1.4510 hc        1 MOL      0.006032
    174 N15        -4.3640    0.6400    4.1770 n         1 MOL      0.023179
    175 C58        -4.8280    1.4330    5.3340 c3        1 MOL     -0.222485
    176 H77        -5.9150    1.3770    5.3980 h1        1 MOL      0.072785
    177 H78        -4.3890    1.0330    6.2480 h1        1 MOL      0.072785
    178 H79        -4.5240    2.4720    5.2090 h1        1 MOL      0.072785
    179 H80        -4.2730    1.1080    3.2940 hn        1 MOL      0.059583
    180 Ca1         2.7000   -0.3130    0.2800 Ca        1 MOL      1.731636
    181 O27         2.4400   -0.7960    2.8610 oh        1 MOL     -0.928593
    182 H81         2.9970   -0.3140    3.4720 ho        1 MOL      0.426620
    183 H82         1.9490   -1.4050    3.4170 ho        1 MOL      0.426620
    184 O28         5.1520   -0.0860    1.2770 oh        1 MOL     -0.928593
    185 H83         4.9200    0.1180    2.1800 ho        1 MOL      0.426620
    186 H84         5.8080   -0.7810    1.3460 ho        1 MOL      0.426620
    187 O29         1.2730    1.0470   -1.8430 oh        1 MOL     -0.928593
    188 H85         1.3940    0.3530   -2.4960 ho        1 MOL      0.426620
    189 H86         1.8880    1.7280   -2.1150 ho        1 MOL      0.426620
@<TRIPOS>BOND
     1    1    2 1   
     2    1    4 1   
     3    1    5 1   
     4    1    6 1   
     5    2    3 2   
     6    2    7 1   
     7    7    8 1   
     8    7   15 1   
     9    8    9 1   
    10    8   11 1   
    11    8   16 1   
    12    9   10 2   
    13    9   19 1   
    14   11   12 1   
    15   11   17 1   
    16   11   18 1   
    17   12   13 1   
    18   12   14 1   
    19   19   20 1   
    20   19   27 1   
    21   20   21 1   
    22   20   23 1   
    23   20   28 1   
    24   21   22 2   
    25   21   38 1   
    26   23   24 1   
    27   23   25 1   
    28   23   29 1   
    29   24   26 1   
    30   24   30 1   
    31   24   31 1   
    32   25   32 1   
    33   25   33 1   
    34   25   34 1   
    35   26   35 1   
    36   26   36 1   
    37   26   37 1   
    38   38   39 1   
    39   38   46 1   
    40   39   40 1   
    41   39   42 1   
    42   39   47 1   
    43   40   41 2   
    44   40   50 1   
    45   42   43 1   
    46   42   48 1   
    47   42   49 1   
    48   43   44 1   
    49   43   45 1   
    50   50   51 1   
    51   50   54 1   
    52   51   52 1   
    53   51   55 1   
    54   51   56 1   
    55   52   53 2   
    56   52   57 1   
    57   57   58 1   
    58   57   65 1   
    59   58   59 1   
    60   58   61 1   
    61   58   66 1   
    62   59   60 2   
    63   59   69 1   
    64   61   62 1   
    65   61   67 1   
    66   61   68 1   
    67   62   63 1   
    68   62   64 1   
    69   69   70 1   
    70   69   73 1   
    71   70   71 1   
    72   70   74 1   
    73   70   75 1   
    74   71   72 2   
    75   71   76 1   
    76   76   77 1   
    77   76   85 1   
    78   77   78 1   
    79   77   80 1   
    80   77   86 1   
    81   78   79 2   
    82   78   93 1   
    83   80   81 1   
    84   80   87 1   
    85   80   88 1   
    86   81   82 1   
    87   81   89 1   
    88   81   90 1   
    89   82   83 1   
    90   82   84 2   
    91   83   91 1   
    92   83   92 1   
    93   93   94 1   
    94   93  100 1   
    95   94   95 1   
    96   94   97 1   
    97   94  101 1   
    98   95   96 2   
    99   95  109 1   
   100   97   98 1   
   101   97   99 1   
   102   97  102 1   
   103   98  103 1   
   104   98  104 1   
   105   98  105 1   
   106   99  106 1   
   107   99  107 1   
   108   99  108 1   
   109  109  110 1   
   110  109  117 1   
   111  110  111 1   
   112  110  113 1   
   113  110  118 1   
   114  111  112 2   
   115  111  123 1   
   116  113  114 1   
   117  113  119 1   
   118  113  120 1   
   119  114  115 1   
   120  114  116 2   
   121  115  121 1   
   122  115  122 1   
   123  123  124 1   
   124  123  135 1   
   125  124  125 1   
   126  124  127 1   
   127  124  136 1   
   128  125  126 2   
   129  125  144 1   
   130  127  128 1   
   131  127  137 1   
   132  127  138 1   
   133  128  129 ar  
   134  128  130 ar  
   135  129  131 ar  
   136  129  139 1   
   137  130  132 ar  
   138  130  140 1   
   139  131  133 ar  
   140  131  141 1   
   141  132  133 ar  
   142  132  142 1   
   143  133  134 1   
   144  134  143 1   
   145  144  145 1   
   146  144  153 1   
   147  145  146 1   
   148  145  148 1   
   149  145  154 1   
   150  146  147 2   
   151  146  159 1   
   152  148  149 1   
   153  148  155 1   
   154  148  156 1   
   155  149  150 1   
   156  149  157 1   
   157  149  158 1   
   158  150  151 1   
   159  150  152 1   
   160  159  160 1   
   161  159  168 1   
   162  160  161 1   
   163  160  163 1   
   164  160  169 1   
   165  161  162 2   
   166  161  174 1   
   167  163  164 1   
   168  163  170 1   
   169  163  171 1   
   170  164  165 1   
   171  164  172 1   
   172  164  173 1   
   173  165  166 1   
   174  165  167 1   
   175  174  175 1   
   176  174  179 1   
   177  175  176 1   
   178  175  177 1   
   179  175  178 1   
   180  181  182 1   
   181  181  183 1   
   182  184  185 1   
   183  184  186 1   
   184  187  188 1   
   185  187  189 1   
@<TRIPOS>SUBSTRUCTURE
     1 MOL         1 TEMP              0 ****  ****    0 ROOT
