@<TRIPOS>MOLECULE
MOL
  175   173     1     0     0
SMALL
resp


@<TRIPOS>ATOM
      1 C1         -0.4610   -2.5280    5.7320 c3        1 MOL     -0.338939
      2 C2         -0.0990   -2.3900    4.2480 c         1 MOL      0.763471
      3 O1         -0.7570   -2.9800    3.3450 o         1 MOL     -0.606296
      4 H1         -0.6310   -1.5390    6.1570 hc        1 MOL      0.087353
      5 H2         -1.3670   -3.1260    5.8320 hc        1 MOL      0.087353
      6 H3          0.3580   -3.0150    6.2630 hc        1 MOL      0.087353
      7 N1          0.9220   -1.5720    3.8880 n         1 MOL     -0.592694
      8 C3          1.4670   -1.5380    2.5160 c3        1 MOL      0.188954
      9 C4          2.0230   -2.8700    2.1150 c         1 MOL      0.378837
     10 O2          2.7870   -3.4410    2.8910 o         1 MOL     -0.565770
     11 C5          2.5400   -0.4090    2.4340 c3        1 MOL     -0.155516
     12 C6          3.1770   -0.1380    1.0830 c         1 MOL      0.720922
     13 O3          2.8170   -0.7230    0.0690 o         1 MOL     -0.681990
     14 O4          4.0530    0.8040    0.9920 o         1 MOL     -0.681990
     15 H4          1.5880   -1.2450    4.5820 hn        1 MOL      0.293018
     16 H5          0.6600   -1.2550    1.8570 h1        1 MOL      0.036656
     17 H6          3.3210   -0.5330    3.1810 hc        1 MOL      0.038104
     18 H7          2.0370    0.5170    2.7280 hc        1 MOL      0.038104
     19 N2          1.5980   -3.4600    0.9760 n         1 MOL     -0.114602
     20 C7          1.9210   -4.8260    0.6470 c3        1 MOL     -0.016601
     21 C8          3.1750   -4.9740   -0.3160 c         1 MOL      0.375695
     22 O5          3.8400   -6.0450   -0.3710 o         1 MOL     -0.563384
     23 C9          0.5980   -5.3530    0.0890 c3        1 MOL     -0.091075
     24 H8          0.8800   -3.0540    0.3940 hn        1 MOL      0.309801
     25 H9          2.1380   -5.3050    1.5940 h1        1 MOL      0.082613
     26 H10         0.2350   -4.9760   -0.8620 hc        1 MOL      0.028291
     27 H11         0.5440   -6.4370    0.0260 hc        1 MOL      0.028291
     28 H12        -0.1880   -5.1000    0.8020 hc        1 MOL      0.028291
     29 N3          3.5220   -3.9510   -1.0300 n         1 MOL     -0.170731
     30 C10         4.9120   -3.8850   -1.5630 c3        1 MOL      0.023636
     31 C11         5.8900   -3.4680   -0.4490 c         1 MOL      0.530340
     32 O6          6.9440   -3.9060   -0.4100 o         1 MOL     -0.529832
     33 C12         4.9980   -3.0090   -2.7640 c3        1 MOL     -0.187528
     34 C13         4.2750   -1.6380   -2.6250 c         1 MOL      0.829318
     35 O7          3.0610   -1.6130   -2.7830 o         1 MOL     -0.734717
     36 O8          4.9750   -0.6030   -2.6370 o         1 MOL     -0.734717
     37 H13         2.9580   -3.1290   -0.9040 hn        1 MOL      0.082639
     38 H14         5.1610   -4.8920   -1.8920 h1        1 MOL      0.094401
     39 H15         4.5800   -3.5590   -3.6050 hc        1 MOL      0.033340
     40 H16         6.0410   -2.7650   -2.9920 hc        1 MOL      0.033340
     41 N4          5.4460   -2.5050    0.4460 n         1 MOL     -0.180680
     42 C14         6.2960   -2.0560    1.5520 c3        1 MOL     -0.293096
     43 C15         7.2080   -0.8310    1.1800 c         1 MOL      0.594983
     44 O9          8.0520   -0.5710    1.9800 o         1 MOL     -0.596874
     45 H17         4.5840   -2.0120    0.2520 hn        1 MOL      0.113511
     46 H18         6.9270   -2.8340    1.9620 h1        1 MOL      0.138150
     47 H19         5.6520   -1.7510    2.3730 h1        1 MOL      0.138150
     48 N5          7.0950   -0.1860    0.0400 n         1 MOL     -0.203832
     49 C16         7.8560    1.0300   -0.2970 c3        1 MOL     -0.210156
     50 C17         7.5170    2.3510    0.5130 c         1 MOL      0.465189
     51 O10         8.0660    3.3940    0.2380 o         1 MOL     -0.505698
     52 C18         7.6590    1.2190   -1.7940 c3        1 MOL     -0.285968
     53 C19         8.3550    0.1440   -2.5790 c         1 MOL      0.718534
     54 N6          7.6460   -0.6550   -3.3000 n         1 MOL     -0.781669
     55 O11         9.5720    0.0640   -2.6910 o         1 MOL     -0.623564
     56 H20         6.4040   -0.4810   -0.6380 hn        1 MOL      0.166762
     57 H21         8.9020    0.8480   -0.0710 h1        1 MOL      0.148736
     58 H22         8.0310    2.2070   -2.0420 hc        1 MOL      0.120889
     59 H23         6.6080    1.2170   -2.0800 hc        1 MOL      0.120889
     60 H24         6.6460   -0.6250   -3.1900 hn        1 MOL      0.353083
     61 H25         8.0370   -1.4650   -3.7440 hn        1 MOL      0.353083
     62 N7          6.4660    2.3170    1.3530 n         1 MOL     -0.115766
     63 C20         6.0920    3.3340    2.2940 c3        1 MOL     -0.249631
     64 C21         4.9050    4.1780    1.9130 c         1 MOL      0.676621
     65 O12         4.7690    5.3780    2.1620 o         1 MOL     -0.618715
     66 H26         6.0050    1.4340    1.5420 hn        1 MOL      0.198358
     67 H27         6.9850    3.9070    2.5580 h1        1 MOL      0.100545
     68 H28         5.8730    2.7060    3.1640 h1        1 MOL      0.100545
     69 N8          3.8780    3.6340    1.2370 n         1 MOL     -0.388043
     70 C22         2.6450    4.3290    0.7000 c3        1 MOL     -0.417814
     71 C23         1.5170    3.3720    0.5950 c         1 MOL      0.857319
     72 O13         1.5450    2.4270   -0.1620 o         1 MOL     -0.771340
     73 C24         2.9340    4.8960   -0.7400 c3        1 MOL      0.558144
     74 C25         1.7060    5.4410   -1.4280 c3        1 MOL     -0.487487
     75 O14         4.0160    5.8310   -0.7180 oh        1 MOL     -0.650804
     76 H29         3.8600    2.6310    1.2730 hn        1 MOL      0.202377
     77 H30         2.4270    5.1430    1.3920 h1        1 MOL      0.143433
     78 H31         3.2430    4.0410   -1.3230 h1        1 MOL      0.015409
     79 H32         4.2960    5.8360    0.1980 ho        1 MOL      0.406561
     80 H33         1.8950    5.7400   -2.4640 hc        1 MOL      0.125781
     81 H34         0.9000    4.7060   -1.5210 hc        1 MOL      0.125781
     82 H35         1.1160    6.1630   -0.8780 hc        1 MOL      0.125781
     83 N9          0.4020    3.6910    1.1870 n         1 MOL     -0.506284
     84 C26        -0.9280    2.9020    1.3190 c3        1 MOL     -0.016430
     85 C27        -1.8590    3.2340    0.1710 c         1 MOL      0.550274
     86 O15        -2.0130    4.3980   -0.1610 o         1 MOL     -0.546514
     87 C28        -1.6570    2.9990    2.6930 c3        1 MOL      0.106211
     88 C29        -0.6830    2.6040    3.8530 c3        1 MOL      0.136589
     89 C30        -2.9930    2.1190    2.7040 c3        1 MOL     -0.270446
     90 C31        -1.2550    2.5090    5.2470 c3        1 MOL     -0.152792
     91 H36         0.4350    4.5590    1.7010 hn        1 MOL      0.281402
     92 H37        -0.7670    1.8250    1.2980 h1        1 MOL      0.166643
     93 H38        -1.9820    4.0240    2.8330 hc        1 MOL     -0.017440
     94 H39         0.0500    3.4060    3.9210 hc        1 MOL     -0.038213
     95 H40        -0.1780    1.6920    3.5590 hc        1 MOL     -0.038213
     96 H41        -2.7620    1.0700    2.5740 hc        1 MOL      0.051836
     97 H42        -3.5970    2.2390    3.5990 hc        1 MOL      0.051836
     98 H43        -3.6520    2.3550    1.8690 hc        1 MOL      0.051836
     99 H44        -2.1910    1.9610    5.3320 hc        1 MOL      0.030388
    100 H45        -0.5600    2.0480    5.9570 hc        1 MOL      0.030388
    101 H46        -1.3900    3.5220    5.6340 hc        1 MOL      0.030388
    102 N10        -2.3710    2.1300   -0.4410 n         1 MOL     -0.362771
    103 C32        -3.3140    2.1210   -1.5090 c3        1 MOL      0.046279
    104 C33        -4.6480    1.4630   -0.9290 c         1 MOL      0.498357
    105 O16        -4.6640    0.5520   -0.1280 o         1 MOL     -0.401997
    106 C34        -2.8700    1.3400   -2.7470 c3        1 MOL     -0.051458
    107 C35        -1.4160    1.5590   -3.1890 c         1 MOL      0.696955
    108 O17        -0.6070    0.5760   -3.2130 o         1 MOL     -0.697975
    109 O18        -1.0210    2.6460   -3.6770 o         1 MOL     -0.697975
    110 H47        -2.1690    1.2300   -0.0230 hn        1 MOL      0.236604
    111 H48        -3.6040    3.0970   -1.8730 h1        1 MOL      0.061539
    112 H49        -3.5180    1.5110   -3.6050 hc        1 MOL      0.004409
    113 H50        -2.9970    0.2640   -2.6660 hc        1 MOL      0.004409
    114 N11        -5.8430    1.8170   -1.4230 n         1 MOL     -0.598309
    115 C36        -7.1320    1.2180   -0.9080 c3        1 MOL      0.179438
    116 C37        -7.3040   -0.3280   -0.9240 c         1 MOL      0.232089
    117 O19        -7.8360   -0.9020    0.0160 o         1 MOL     -0.428535
    118 C38        -8.3430    1.9680   -1.5870 c3        1 MOL     -0.222361
    119 C39        -9.7170    1.7500   -0.9220 ca        1 MOL     -0.032764
    120 C40       -10.1060    2.5400    0.1590 ca        1 MOL     -0.054814
    121 C41       -10.6230    0.7460   -1.3540 ca        1 MOL     -0.054814
    122 C42       -11.2870    2.3320    0.8240 ca        1 MOL     -0.181241
    123 C43       -11.8700    0.6050   -0.7850 ca        1 MOL     -0.181241
    124 C44       -12.1260    1.3840    0.3540 ca        1 MOL     -0.026989
    125 H51        -5.8450    2.6080   -2.0490 hn        1 MOL      0.298700
    126 H52        -7.1340    1.6730    0.0820 h1        1 MOL      0.111139
    127 H53        -8.4280    1.7180   -2.6490 hc        1 MOL      0.094889
    128 H54        -8.1830    3.0460   -1.6060 hc        1 MOL      0.094889
    129 H55        -9.5450    3.4120    0.4680 ha        1 MOL      0.091202
    130 H56       -10.3170    0.0930   -2.1610 ha        1 MOL      0.091202
    131 H57       -11.6900    2.9410    1.6190 ha        1 MOL      0.124807
    132 H58       -12.5130   -0.2070   -1.0830 ha        1 MOL      0.124807
    133 H59       -13.0790    1.2050    0.8410 ha        1 MOL      0.070978
    134 N12        -6.6910   -1.0560   -1.8780 n         1 MOL      0.046989
    135 C45        -6.7040   -2.5100   -1.7280 c3        1 MOL      0.179188
    136 C46        -5.9040   -3.1040   -0.5000 c         1 MOL      0.158641
    137 O20        -6.3530   -4.0990    0.1040 o         1 MOL     -0.464478
    138 C47        -5.9390   -2.9920   -2.9740 c3        1 MOL     -0.128112
    139 C48        -6.1710   -1.9030   -4.0190 c3        1 MOL     -0.148421
    140 C49        -6.3960   -0.6180   -3.2340 c3        1 MOL      0.024471
    141 H60        -7.7270   -2.8690   -1.6730 h1        1 MOL      0.016650
    142 H61        -4.8600   -3.0560   -2.7970 hc        1 MOL      0.060043
    143 H62        -6.4520   -3.8690   -3.3560 hc        1 MOL      0.060043
    144 H63        -5.1860   -1.7930   -4.4580 hc        1 MOL      0.057301
    145 H64        -6.9600   -2.0780   -4.7410 hc        1 MOL      0.057301
    146 H65        -5.4500   -0.0860   -3.2910 h1        1 MOL      0.016199
    147 H66        -7.1710    0.0010   -3.6910 h1        1 MOL      0.016199
    148 N13        -4.8670   -2.3810   -0.1410 n         1 MOL     -0.065992
    149 C50        -4.1650   -2.5700    1.1040 c3        1 MOL     -0.401232
    150 C51        -5.0010   -2.1580    2.3300 c         1 MOL      0.613199
    151 O21        -4.7770   -2.8530    3.3590 o         1 MOL     -0.566576
    152 C52        -2.8900   -1.7300    0.9610 c3        1 MOL      0.036531
    153 C53        -2.0290   -2.2820   -0.1630 c3        1 MOL      0.354583
    154 C54        -0.8120   -1.5190   -0.5030 c         1 MOL      0.303802
    155 O22        -0.7100   -0.2860   -0.2280 o         1 MOL     -0.703369
    156 O23         0.1760   -2.0490   -1.0650 o         1 MOL     -0.703369
    157 H67        -4.4620   -1.6020   -0.6400 hn        1 MOL      0.225386
    158 H68        -3.9170   -3.6300    1.1920 h1        1 MOL      0.185119
    159 H69        -2.3760   -1.8710    1.9080 hc        1 MOL      0.019684
    160 H70        -3.0140   -0.6510    0.8890 hc        1 MOL      0.019684
    161 H71        -2.6370   -2.4150   -1.0550 hc        1 MOL     -0.057889
    162 H72        -1.6660   -3.2870    0.0630 hc        1 MOL     -0.057889
    163 N14        -5.8050   -1.0540    2.3350 n         1 MOL     -0.178146
    164 C55        -6.5800   -0.6210    3.4890 c3        1 MOL     -0.216010
    165 H73        -6.3540    0.4230    3.7070 h1        1 MOL      0.088733
    166 H74        -7.6440   -0.7240    3.2730 h1        1 MOL      0.088733
    167 H75        -6.3230   -1.2350    4.3510 h1        1 MOL      0.088733
    168 H76        -5.9550   -0.5480    1.4770 hn        1 MOL      0.149416
    169 Ca1         1.4300    0.1690   -1.7270 Ca        1 MOL      1.783466
    170 O24         3.8440    1.4140   -1.7240 oh        1 MOL     -0.837029
    171 H77         4.2230    0.6770   -2.2090 ho        1 MOL      0.405832
    172 H78         4.1710    1.3200   -0.8320 ho        1 MOL      0.405832
    173 O25         2.3190    0.7810   -4.2080 oh        1 MOL     -0.837029
    174 H79         3.2590    0.7660   -4.3930 ho        1 MOL      0.405832
    175 H80         1.9240    0.3050   -4.9430 ho        1 MOL      0.405832
@<TRIPOS>BOND
     1    1    2 1   
     2    1    4 1   
     3    1    5 1   
     4    1    6 1   
     5    2    3 2   
     6    2    7 1   
     7    7    8 1   
     8    7   15 1   
     9    8    9 1   
    10    8   11 1   
    11    8   16 1   
    12    9   10 2   
    13    9   19 1   
    14   11   12 1   
    15   11   17 1   
    16   11   18 1   
    17   12   13 1   
    18   12   14 1   
    19   19   20 1   
    20   19   24 1   
    21   20   21 1   
    22   20   23 1   
    23   20   25 1   
    24   21   22 2   
    25   21   29 1   
    26   23   26 1   
    27   23   27 1   
    28   23   28 1   
    29   29   30 1   
    30   29   37 1   
    31   30   31 1   
    32   30   33 1   
    33   30   38 1   
    34   31   32 2   
    35   31   41 1   
    36   33   34 1   
    37   33   39 1   
    38   33   40 1   
    39   34   35 1   
    40   34   36 1   
    41   41   42 1   
    42   41   45 1   
    43   42   43 1   
    44   42   46 1   
    45   42   47 1   
    46   43   44 2   
    47   43   48 1   
    48   48   49 1   
    49   48   56 1   
    50   49   50 1   
    51   49   52 1   
    52   49   57 1   
    53   50   51 2   
    54   50   62 1   
    55   52   53 1   
    56   52   58 1   
    57   52   59 1   
    58   53   54 1   
    59   53   55 2   
    60   54   60 1   
    61   54   61 1   
    62   62   63 1   
    63   62   66 1   
    64   63   64 1   
    65   63   67 1   
    66   63   68 1   
    67   64   65 2   
    68   64   69 1   
    69   69   70 1   
    70   69   76 1   
    71   70   71 1   
    72   70   73 1   
    73   70   77 1   
    74   71   72 2   
    75   71   83 1   
    76   73   74 1   
    77   73   75 1   
    78   73   78 1   
    79   74   80 1   
    80   74   81 1   
    81   74   82 1   
    82   75   79 1   
    83   83   84 1   
    84   83   91 1   
    85   84   85 1   
    86   84   87 1   
    87   84   92 1   
    88   85   86 2   
    89   85  102 1   
    90   87   88 1   
    91   87   89 1   
    92   87   93 1   
    93   88   90 1   
    94   88   94 1   
    95   88   95 1   
    96   89   96 1   
    97   89   97 1   
    98   89   98 1   
    99   90   99 1   
   100   90  100 1   
   101   90  101 1   
   102  102  103 1   
   103  102  110 1   
   104  103  104 1   
   105  103  106 1   
   106  103  111 1   
   107  104  105 2   
   108  104  114 1   
   109  106  107 1   
   110  106  112 1   
   111  106  113 1   
   112  107  108 1   
   113  107  109 1   
   114  114  115 1   
   115  114  125 1   
   116  115  116 1   
   117  115  118 1   
   118  115  126 1   
   119  116  117 2   
   120  116  134 1   
   121  118  119 1   
   122  118  127 1   
   123  118  128 1   
   124  119  120 ar  
   125  119  121 ar  
   126  120  122 ar  
   127  120  129 1   
   128  121  123 ar  
   129  121  130 1   
   130  122  124 ar  
   131  122  131 1   
   132  123  124 ar  
   133  123  132 1   
   134  124  133 1   
   135  134  135 1   
   136  134  140 1   
   137  135  136 1   
   138  135  138 1   
   139  135  141 1   
   140  136  137 2   
   141  136  148 1   
   142  138  139 1   
   143  138  142 1   
   144  138  143 1   
   145  139  140 1   
   146  139  144 1   
   147  139  145 1   
   148  140  146 1   
   149  140  147 1   
   150  148  149 1   
   151  148  157 1   
   152  149  150 1   
   153  149  152 1   
   154  149  158 1   
   155  150  151 2   
   156  150  163 1   
   157  152  153 1   
   158  152  159 1   
   159  152  160 1   
   160  153  154 1   
   161  153  161 1   
   162  153  162 1   
   163  154  155 1   
   164  154  156 1   
   165  163  164 1   
   166  163  168 1   
   167  164  165 1   
   168  164  166 1   
   169  164  167 1   
   170  170  171 1   
   171  170  172 1   
   172  173  174 1   
   173  173  175 1   
@<TRIPOS>SUBSTRUCTURE
     1 MOL         1 TEMP              0 ****  ****    0 ROOT
