@<TRIPOS>MOLECULE
MOL
  189   185     1     0     0
SMALL
resp


@<TRIPOS>ATOM
      1 C1          0.5120    2.2340    5.4890 c3        1 MOL     -0.371821
      2 C2         -0.0250    2.0370    4.0630 c         1 MOL      0.746224
      3 O1          0.7020    2.3520    3.1280 o         1 MOL     -0.617648
      4 H1          0.9330    1.2950    5.8510 hc        1 MOL      0.091359
      5 H2          1.2860    3.0000    5.4830 hc        1 MOL      0.091359
      6 H3         -0.3020    2.5430    6.1440 hc        1 MOL      0.091359
      7 N1         -1.1650    1.3770    3.8140 n         1 MOL     -0.607255
      8 C3         -1.7810    1.3560    2.4460 c3        1 MOL      0.118278
      9 C4         -2.2110    2.7740    2.1400 c         1 MOL      0.426930
     10 O2         -3.0080    3.3070    2.8960 o         1 MOL     -0.555912
     11 C5         -3.0230    0.4720    2.5380 c3        1 MOL     -0.300976
     12 C6         -3.8610    0.5160    1.2400 c         1 MOL      0.690526
     13 O3         -5.0130   -0.0170    1.2840 o         1 MOL     -0.629368
     14 O4         -3.2710    0.9060    0.2170 o         1 MOL     -0.629368
     15 H4         -1.6370    0.9250    4.5860 hn        1 MOL      0.333055
     16 H5         -1.1360    0.8980    1.7000 h1        1 MOL      0.054362
     17 H6         -3.7050    0.7800    3.3280 hc        1 MOL      0.082183
     18 H7         -2.7180   -0.5120    2.8900 hc        1 MOL      0.082183
     19 N2         -1.4710    3.3690    1.1990 n         1 MOL     -0.063541
     20 C7         -1.6150    4.7020    0.7350 c3        1 MOL     -0.111190
     21 C8         -2.5370    4.8630   -0.3980 c         1 MOL      0.566178
     22 O5         -2.7700    5.9560   -0.8970 o         1 MOL     -0.584733
     23 C9         -0.2810    5.2400    0.2860 c3        1 MOL      0.074509
     24 C10         0.8690    5.1620    1.3150 c3        1 MOL      0.044482
     25 C11         0.3530    5.7510    2.6350 c3        1 MOL     -0.051801
     26 C12         1.6090    6.2420    3.3160 c3        1 MOL      0.072117
     27 N3          1.3400    7.2250    4.4150 n4        1 MOL     -0.285364
     28 H8         -0.9370    2.7910    0.5770 hn        1 MOL      0.347917
     29 H9         -1.9640    5.3560    1.5410 h1        1 MOL      0.047117
     30 H10        -0.4380    6.2850    0.0230 hc        1 MOL     -0.018310
     31 H11         0.1410    4.6760   -0.5380 hc        1 MOL     -0.018310
     32 H12         1.6470    5.8310    0.9390 hc        1 MOL     -0.004458
     33 H13         1.3590    4.1810    1.3770 hc        1 MOL     -0.004458
     34 H14        -0.2310    5.0220    3.1960 hc        1 MOL      0.033492
     35 H15        -0.3000    6.6180    2.5090 hc        1 MOL      0.033492
     36 H16         2.2510    6.7830    2.6270 hx        1 MOL      0.062008
     37 H17         2.1620    5.3840    3.7110 hx        1 MOL      0.062008
     38 H18         0.7690    7.9890    4.0760 hn        1 MOL      0.296439
     39 H19         0.9120    6.8310    5.2390 hn        1 MOL      0.296439
     40 H20         2.1670    7.7290    4.7240 hn        1 MOL      0.296439
     41 N4         -3.2290    3.8240   -0.8900 n         1 MOL     -0.346909
     42 C13        -4.1790    3.9510   -2.0400 c3        1 MOL      0.046616
     43 C14        -5.5140    3.2360   -1.9370 c         1 MOL      0.470648
     44 O6         -6.4160    3.5380   -2.7200 o         1 MOL     -0.542771
     45 C15        -3.3770    3.5750   -3.3650 c3        1 MOL     -0.288883
     46 C16        -2.7810    2.2310   -3.3560 c         1 MOL      0.862541
     47 O7         -3.3690    1.2700   -2.7720 o         1 MOL     -0.717504
     48 O8         -1.7830    2.0390   -4.0230 o         1 MOL     -0.717504
     49 H21        -3.0790    2.9630   -0.3760 hn        1 MOL      0.027755
     50 H22        -4.4220    5.0110   -2.1260 h1        1 MOL      0.107373
     51 H23        -2.6660    4.3470   -3.6260 hc        1 MOL      0.073191
     52 H24        -4.1650    3.5600   -4.1210 hc        1 MOL      0.073191
     53 N5         -5.7110    2.5410   -0.8420 n         1 MOL     -0.328583
     54 C17        -7.0690    2.3040   -0.3590 c3        1 MOL     -0.229486
     55 C18        -7.6170    0.9690   -0.8090 c         1 MOL      0.531997
     56 O9         -8.8030    0.6610   -0.5990 o         1 MOL     -0.574059
     57 H25        -4.8700    2.2850   -0.3280 hn        1 MOL      0.329512
     58 H26        -7.7960    3.0690   -0.6700 h1        1 MOL      0.129859
     59 H27        -7.0700    2.3200    0.7350 h1        1 MOL      0.129859
     60 N6         -6.7280    0.1480   -1.4500 n         1 MOL     -0.173770
     61 C19        -7.2230   -1.1290   -2.0500 c3        1 MOL     -0.195921
     62 C20        -7.4540   -2.1530   -0.9520 c         1 MOL      0.450016
     63 O10        -7.9270   -3.2650   -1.2200 o         1 MOL     -0.550796
     64 C21        -6.1240   -1.6250   -3.0660 c3        1 MOL     -0.074683
     65 C22        -4.6680   -1.6340   -2.6610 c         1 MOL      0.725115
     66 O11        -4.4150   -1.7740   -1.4510 o         1 MOL     -0.744397
     67 O12        -3.7430   -1.5360   -3.5050 o         1 MOL     -0.744397
     68 H28        -5.7380    0.3450   -1.3660 hn        1 MOL      0.143869
     69 H29        -8.0750   -0.9730   -2.7040 h1        1 MOL      0.149178
     70 H30        -6.2350   -1.0740   -3.9970 hc        1 MOL      0.051378
     71 H31        -6.2840   -2.6580   -3.3980 hc        1 MOL      0.051378
     72 N7         -6.9140   -1.9450    0.2520 n         1 MOL     -0.099418
     73 C23        -6.8680   -2.9050    1.3280 c3        1 MOL     -0.205080
     74 C24        -5.6000   -3.8240    1.3940 c         1 MOL      0.684707
     75 O13        -5.7680   -4.8540    2.0010 o         1 MOL     -0.610977
     76 H32        -6.2960   -1.1550    0.3410 hn        1 MOL      0.162804
     77 H33        -7.6660   -3.6360    1.1560 h1        1 MOL      0.081862
     78 H34        -6.9530   -2.3510    2.2590 h1        1 MOL      0.081862
     79 N8         -4.4670   -3.4490    0.8620 n         1 MOL     -0.388166
     80 C25        -3.1830   -4.1780    0.9010 c3        1 MOL     -0.252012
     81 C26        -2.0830   -3.1560    1.0250 c         1 MOL      0.744625
     82 O14        -2.2380   -2.0160    0.5520 o         1 MOL     -0.697793
     83 C27        -2.9670   -4.9270   -0.3800 c3        1 MOL      0.609915
     84 C28        -3.3000   -6.4070   -0.1770 c3        1 MOL     -0.571229
     85 O15        -3.6970   -4.4930   -1.5020 oh        1 MOL     -0.641065
     86 H35        -4.4590   -2.5610    0.3750 hn        1 MOL      0.309171
     87 H36        -3.1610   -4.9490    1.6690 h1        1 MOL      0.112429
     88 H37        -1.9220   -4.9030   -0.6750 h1        1 MOL     -0.100086
     89 H38        -3.7730   -3.5340   -1.4260 ho        1 MOL      0.422790
     90 H39        -4.3740   -6.5480   -0.1640 hc        1 MOL      0.145118
     91 H40        -2.9580   -6.9490   -1.0680 hc        1 MOL      0.145118
     92 H41        -2.7320   -6.7410    0.6820 hc        1 MOL      0.145118
     93 N9         -1.0330   -3.5850    1.7610 n         1 MOL     -0.608213
     94 C29         0.2210   -2.8110    1.9280 c3        1 MOL      0.091412
     95 C30         1.3730   -3.3810    1.0250 c         1 MOL      0.393659
     96 O16         1.6430   -4.5650    1.1320 o         1 MOL     -0.554767
     97 C31         0.7450   -2.7410    3.4350 c3        1 MOL      0.104170
     98 C32        -0.4590   -2.2590    4.3460 c3        1 MOL      0.003820
     99 C33         1.8490   -1.6730    3.5370 c3        1 MOL     -0.260808
    100 C34        -0.1160   -2.5460    5.8290 c3        1 MOL     -0.153468
    101 H42        -1.1270   -4.4840    2.2180 hn        1 MOL      0.324721
    102 H43         0.0350   -1.8170    1.5230 h1        1 MOL      0.130198
    103 H44         1.1960   -3.6950    3.6980 hc        1 MOL      0.033650
    104 H45        -1.3350   -2.8670    4.1590 hc        1 MOL      0.020175
    105 H46        -0.6750   -1.2110    4.1470 hc        1 MOL      0.020175
    106 H47         2.3330   -1.5450    4.5040 hc        1 MOL      0.063649
    107 H48         2.6470   -1.9450    2.8500 hc        1 MOL      0.063649
    108 H49         1.4470   -0.7370    3.1560 hc        1 MOL      0.063649
    109 H50        -0.8540   -2.0720    6.4620 hc        1 MOL      0.034331
    110 H51         0.0130   -3.6020    6.0720 hc        1 MOL      0.034331
    111 H52         0.8190   -2.1010    6.1590 hc        1 MOL      0.034331
    112 N10         2.0240   -2.6260    0.1520 n         1 MOL     -0.126832
    113 C35         3.1800   -3.1120   -0.6370 c3        1 MOL      0.107329
    114 C36         4.4500   -2.8370    0.1440 c         1 MOL      0.273702
    115 O17         4.5660   -1.9520    1.0330 o         1 MOL     -0.323411
    116 C37         3.4000   -2.4310   -2.0200 c3        1 MOL      0.032910
    117 C38         2.1660   -2.8430   -2.8450 c3        1 MOL     -0.092398
    118 O18         3.5870   -1.0520   -1.9930 oh        1 MOL     -0.262982
    119 H53         1.7270   -1.6850   -0.0540 hn        1 MOL      0.165964
    120 H54         3.1660   -4.1940   -0.7230 h1        1 MOL      0.082935
    121 H55         4.2060   -2.9320   -2.5600 h1        1 MOL      0.021635
    122 H56         3.1210   -0.7700   -2.7860 ho        1 MOL      0.313389
    123 H57         2.1930   -3.9330   -2.8690 hc        1 MOL      0.023888
    124 H58         1.2760   -2.5460   -2.2900 hc        1 MOL      0.023888
    125 H59         2.1390   -2.4550   -3.8680 hc        1 MOL      0.023888
    126 N11         5.5600   -3.5440   -0.2730 n         1 MOL     -0.247638
    127 C39         6.9120   -3.2040    0.2340 c3        1 MOL     -0.025556
    128 C40         7.3600   -1.7350    0.0680 c         1 MOL      0.258367
    129 O19         8.1380   -1.1700    0.9130 o         1 MOL     -0.449845
    130 C41         7.9850   -4.2240   -0.2940 c3        1 MOL      0.468875
    131 C42         8.9980   -4.6010    0.7620 c3        1 MOL     -0.318349
    132 O20         7.4370   -5.4600   -0.7440 oh        1 MOL     -0.655180
    133 H60         5.4590   -4.3140   -0.9180 hn        1 MOL      0.231507
    134 H61         6.8210   -3.3240    1.3160 h1        1 MOL      0.104345
    135 H62         8.4140   -3.7700   -1.1880 h1        1 MOL     -0.057376
    136 H63         8.1960   -5.9240   -1.1050 ho        1 MOL      0.407733
    137 H64         9.6940   -5.2890    0.2710 hc        1 MOL      0.082947
    138 H65         9.4950   -3.6800    1.0630 hc        1 MOL      0.082947
    139 H66         8.5420   -5.0730    1.6280 hc        1 MOL      0.082947
    140 N12         6.9150   -1.0330   -1.0500 n         1 MOL     -0.121113
    141 C43         7.1130    0.3900   -1.3690 c3        1 MOL     -0.262483
    142 C44         6.2090    1.2990   -0.5570 c         1 MOL      0.522723
    143 O21         6.6320    2.4010   -0.2260 o         1 MOL     -0.556125
    144 C45         7.1070    0.5680   -2.9480 c3        1 MOL     -0.062389
    145 C46         7.5340    1.9430   -3.4500 c3        1 MOL      0.149567
    146 C47         7.3710    1.9500   -4.9990 c3        1 MOL     -0.046806
    147 C48         7.4080    3.4130   -5.4590 c3        1 MOL      0.051833
    148 N13         8.5050    4.1410   -4.8520 n4        1 MOL     -0.228959
    149 H67         6.4320   -1.6300   -1.7040 hn        1 MOL      0.174225
    150 H68         8.1080    0.6870   -1.0450 h1        1 MOL      0.155533
    151 H69         6.0660    0.4080   -3.2300 hc        1 MOL      0.043670
    152 H70         7.6340   -0.1810   -3.5310 hc        1 MOL      0.043670
    153 H71         8.5800    2.1020   -3.2040 hc        1 MOL     -0.010389
    154 H72         6.9210    2.7440   -3.0300 hc        1 MOL     -0.010389
    155 H73         6.3870    1.5670   -5.2690 hc        1 MOL      0.031672
    156 H74         8.1920    1.4450   -5.5080 hc        1 MOL      0.031672
    157 H75         6.4880    3.9440   -5.2350 hx        1 MOL      0.072558
    158 H76         7.5690    3.4900   -6.5360 hx        1 MOL      0.072558
    159 H77         8.3030    4.3950   -3.8890 hn        1 MOL      0.263842
    160 H78         9.3630    3.6090   -4.9330 hn        1 MOL      0.263842
    161 H79         8.6820    5.0210   -5.3210 hn        1 MOL      0.263842
    162 N14         4.9930    0.8790   -0.2180 n         1 MOL     -0.111858
    163 C49         4.1100    1.6530    0.7860 c3        1 MOL      0.034999
    164 C50         4.6720    1.6340    2.1760 c         1 MOL      0.438030
    165 O22         4.8780    2.7020    2.8020 o         1 MOL     -0.561502
    166 C51         2.7230    0.9960    0.7750 c3        1 MOL      0.216127
    167 C52         1.8370    1.6250   -0.3760 c3        1 MOL     -0.220497
    168 C53         0.4370    0.9520   -0.5140 c         1 MOL      0.832058
    169 O23        -0.5660    1.6230   -0.8090 o         1 MOL     -0.796043
    170 O24         0.3970   -0.2910   -0.4330 o         1 MOL     -0.796043
    171 H80         4.6790   -0.0550   -0.4570 hn        1 MOL     -0.196753
    172 H81         3.9880    2.7010    0.5000 h1        1 MOL      0.034618
    173 H82         2.1980    1.1400    1.7230 hc        1 MOL     -0.055340
    174 H83         2.8130   -0.0900    0.7330 hc        1 MOL     -0.055340
    175 H84         2.2670    1.4720   -1.3690 hc        1 MOL      0.027602
    176 H85         1.7030    2.6780   -0.1140 hc        1 MOL      0.027602
    177 N15         5.1180    0.4310    2.5240 n         1 MOL      0.003790
    178 C54         5.8850    0.2510    3.8120 c3        1 MOL     -0.235151
    179 H86         6.1210   -0.8040    3.9500 h1        1 MOL      0.095096
    180 H87         6.8090    0.8260    3.7680 h1        1 MOL      0.095096
    181 H88         5.2790    0.5990    4.6480 h1        1 MOL      0.095096
    182 H89         4.5680   -0.3340    2.1740 hn        1 MOL      0.084625
    183 Ca1        -2.0360   -0.4780   -1.5490 Ca        1 MOL      1.787196
    184 O25        -0.1660   -0.1420   -3.7050 oh        1 MOL     -0.829850
    185 H90         0.7640   -0.3280   -3.8470 ho        1 MOL      0.403999
    186 H91        -0.3690    0.5440   -4.3480 ho        1 MOL      0.403999
    187 O26        -1.0950   -2.9170   -2.4060 oh        1 MOL     -0.829850
    188 H92        -0.6650   -2.8270   -3.2530 ho        1 MOL      0.403999
    189 H93        -1.1530   -3.8610   -2.2610 ho        1 MOL      0.403999
@<TRIPOS>BOND
     1    1    2 1   
     2    1    4 1   
     3    1    5 1   
     4    1    6 1   
     5    2    3 2   
     6    2    7 1   
     7    7    8 1   
     8    7   15 1   
     9    8    9 1   
    10    8   11 1   
    11    8   16 1   
    12    9   10 2   
    13    9   19 1   
    14   11   12 1   
    15   11   17 1   
    16   11   18 1   
    17   12   13 1   
    18   12   14 1   
    19   19   20 1   
    20   19   28 1   
    21   20   21 1   
    22   20   23 1   
    23   20   29 1   
    24   21   22 2   
    25   21   41 1   
    26   23   24 1   
    27   23   30 1   
    28   23   31 1   
    29   24   25 1   
    30   24   32 1   
    31   24   33 1   
    32   25   26 1   
    33   25   34 1   
    34   25   35 1   
    35   26   27 1   
    36   26   36 1   
    37   26   37 1   
    38   27   38 1   
    39   27   39 1   
    40   27   40 1   
    41   41   42 1   
    42   41   49 1   
    43   42   43 1   
    44   42   45 1   
    45   42   50 1   
    46   43   44 2   
    47   43   53 1   
    48   45   46 1   
    49   45   51 1   
    50   45   52 1   
    51   46   47 1   
    52   46   48 1   
    53   53   54 1   
    54   53   57 1   
    55   54   55 1   
    56   54   58 1   
    57   54   59 1   
    58   55   56 2   
    59   55   60 1   
    60   60   61 1   
    61   60   68 1   
    62   61   62 1   
    63   61   64 1   
    64   61   69 1   
    65   62   63 2   
    66   62   72 1   
    67   64   65 1   
    68   64   70 1   
    69   64   71 1   
    70   65   66 1   
    71   65   67 1   
    72   72   73 1   
    73   72   76 1   
    74   73   74 1   
    75   73   77 1   
    76   73   78 1   
    77   74   75 2   
    78   74   79 1   
    79   79   80 1   
    80   79   86 1   
    81   80   81 1   
    82   80   83 1   
    83   80   87 1   
    84   81   82 2   
    85   81   93 1   
    86   83   84 1   
    87   83   85 1   
    88   83   88 1   
    89   84   90 1   
    90   84   91 1   
    91   84   92 1   
    92   85   89 1   
    93   93   94 1   
    94   93  101 1   
    95   94   95 1   
    96   94   97 1   
    97   94  102 1   
    98   95   96 2   
    99   95  112 1   
   100   97   98 1   
   101   97   99 1   
   102   97  103 1   
   103   98  100 1   
   104   98  104 1   
   105   98  105 1   
   106   99  106 1   
   107   99  107 1   
   108   99  108 1   
   109  100  109 1   
   110  100  110 1   
   111  100  111 1   
   112  112  113 1   
   113  112  119 1   
   114  113  114 1   
   115  113  116 1   
   116  113  120 1   
   117  114  115 2   
   118  114  126 1   
   119  116  117 1   
   120  116  118 1   
   121  116  121 1   
   122  117  123 1   
   123  117  124 1   
   124  117  125 1   
   125  118  122 1   
   126  126  127 1   
   127  126  133 1   
   128  127  128 1   
   129  127  130 1   
   130  127  134 1   
   131  128  129 2   
   132  128  140 1   
   133  130  131 1   
   134  130  132 1   
   135  130  135 1   
   136  131  137 1   
   137  131  138 1   
   138  131  139 1   
   139  132  136 1   
   140  140  141 1   
   141  140  149 1   
   142  141  142 1   
   143  141  144 1   
   144  141  150 1   
   145  142  143 2   
   146  142  162 1   
   147  144  145 1   
   148  144  151 1   
   149  144  152 1   
   150  145  146 1   
   151  145  153 1   
   152  145  154 1   
   153  146  147 1   
   154  146  155 1   
   155  146  156 1   
   156  147  148 1   
   157  147  157 1   
   158  147  158 1   
   159  148  159 1   
   160  148  160 1   
   161  148  161 1   
   162  162  163 1   
   163  162  171 1   
   164  163  164 1   
   165  163  166 1   
   166  163  172 1   
   167  164  165 2   
   168  164  177 1   
   169  166  167 1   
   170  166  173 1   
   171  166  174 1   
   172  167  168 1   
   173  167  175 1   
   174  167  176 1   
   175  168  169 1   
   176  168  170 1   
   177  177  178 1   
   178  177  182 1   
   179  178  179 1   
   180  178  180 1   
   181  178  181 1   
   182  184  185 1   
   183  184  186 1   
   184  187  188 1   
   185  187  189 1   
@<TRIPOS>SUBSTRUCTURE
     1 MOL         1 TEMP              0 ****  ****    0 ROOT
