@<TRIPOS>MOLECULE
MOL
  172   171     1     0     0
SMALL
resp


@<TRIPOS>ATOM
      1 C1          0.4130    3.5180    5.9330 c3        1 MOL     -0.382271
      2 C2         -0.1600    3.5110    4.4720 c         1 MOL      0.719336
      3 O1          0.5820    3.5110    3.5050 o         1 MOL     -0.580214
      4 H1          1.4680    3.7890    5.9080 hc        1 MOL      0.094530
      5 H2         -0.1340    4.2450    6.5350 hc        1 MOL      0.094530
      6 H3          0.3030    2.5260    6.3720 hc        1 MOL      0.094530
      7 N1         -1.4890    3.3080    4.3350 n         1 MOL     -0.606971
      8 C3         -2.1170    3.1200    3.0070 c3        1 MOL      0.070965
      9 C4         -2.4230    4.5070    2.4030 c         1 MOL      0.568399
     10 O2         -3.0070    5.4180    2.9560 o         1 MOL     -0.575413
     11 C5         -3.3990    2.3430    3.0740 c3        1 MOL     -0.376953
     12 C6         -4.0450    1.8870    1.7630 c         1 MOL      0.719336
     13 O3         -5.1220    1.2380    1.9460 o         1 MOL     -0.659097
     14 O4         -3.4990    1.8810    0.6240 o         1 MOL     -0.659097
     15 H4         -2.1540    3.5420    5.0570 hn        1 MOL      0.318656
     16 H5         -1.4600    2.5260    2.3840 h1        1 MOL      0.174336
     17 H6         -4.1200    3.0440    3.4970 hc        1 MOL      0.102316
     18 H7         -3.3770    1.5970    3.8690 hc        1 MOL      0.102316
     19 N2         -2.1020    4.6260    1.1010 n         1 MOL     -0.520488
     20 C7         -2.5270    5.6880    0.2130 c3        1 MOL      0.539251
     21 C8         -3.0870    5.1990   -1.2140 c         1 MOL      0.233177
     22 O5         -3.1330    6.0440   -2.1730 o         1 MOL     -0.522118
     23 C9         -1.3090    6.5880   -0.0060 c3        1 MOL     -0.503160
     24 H8         -1.7010    3.8280    0.6320 hn        1 MOL      0.290428
     25 H9         -3.3440    6.2070    0.7300 h1        1 MOL     -0.046490
     26 H10        -0.5670    5.9900   -0.5280 hc        1 MOL      0.115760
     27 H11        -1.6950    7.4550   -0.5350 hc        1 MOL      0.115760
     28 H12        -0.9720    6.9170    0.9800 hc        1 MOL      0.115760
     29 N3         -3.6370    3.9560   -1.3430 n         1 MOL     -0.061634
     30 C10        -4.3580    3.7360   -2.6170 c3        1 MOL     -0.066936
     31 C11        -5.6850    2.9440   -2.3730 c         1 MOL      0.471150
     32 O6         -6.4020    2.7140   -3.3490 o         1 MOL     -0.536890
     33 C12        -3.4570    3.0860   -3.7080 c3        1 MOL      0.119092
     34 C13        -2.7040    1.8810   -3.0960 c         1 MOL      0.539794
     35 O7         -1.4930    1.8410   -3.2660 o         1 MOL     -0.610690
     36 O8         -3.4050    1.1560   -2.3190 o         1 MOL     -0.610690
     37 H13        -3.8550    3.3370   -0.5730 hn        1 MOL      0.023645
     38 H14        -4.5770    4.6730   -3.1270 h1        1 MOL      0.072362
     39 H15        -2.6690    3.7040   -4.1290 hc        1 MOL     -0.037575
     40 H16        -4.1440    2.7950   -4.5080 hc        1 MOL     -0.037575
     41 N4         -6.0060    2.5080   -1.1810 n         1 MOL     -0.458696
     42 C14        -7.2550    1.7480   -0.8180 c3        1 MOL     -0.102666
     43 C15        -7.3190    0.2820   -1.3640 c         1 MOL      0.483964
     44 O9         -8.3780   -0.2890   -1.2330 o         1 MOL     -0.594419
     45 H17        -5.3150    2.5110   -0.4480 hn        1 MOL      0.344683
     46 H18        -8.1610    2.2410   -1.1770 h1        1 MOL      0.098717
     47 H19        -7.2520    1.6420    0.2560 h1        1 MOL      0.098717
     48 N5         -6.2630   -0.2730   -1.9340 n         1 MOL     -0.167092
     49 C16        -6.3260   -1.6250   -2.6740 c3        1 MOL     -0.016271
     50 C17        -6.5570   -2.7970   -1.7310 c         1 MOL      0.484759
     51 O10        -6.9830   -3.9020   -2.1640 o         1 MOL     -0.556314
     52 C18        -5.1390   -1.7920   -3.6730 c3        1 MOL     -0.274192
     53 C19        -3.7900   -2.0250   -3.0110 c         1 MOL      0.584919
     54 N6         -2.8000   -2.5490   -3.7460 n         1 MOL     -0.635057
     55 O11        -3.5370   -1.6550   -1.8740 o         1 MOL     -0.629697
     56 H20        -5.4200    0.2660   -2.0750 hn        1 MOL      0.162960
     57 H21        -7.2740   -1.6410   -3.2170 h1        1 MOL      0.089958
     58 H22        -5.1160   -0.9340   -4.3450 hc        1 MOL      0.104703
     59 H23        -5.4340   -2.6200   -4.3170 hc        1 MOL      0.104703
     60 H24        -2.9380   -3.1270   -4.5640 hn        1 MOL      0.327165
     61 H25        -1.8820   -2.4120   -3.3300 hn        1 MOL      0.327165
     62 N7         -6.2820   -2.5340   -0.4000 n         1 MOL     -0.208932
     63 C20        -6.5130   -3.3960    0.7730 c3        1 MOL     -0.297569
     64 C21        -5.2440   -4.0610    1.4310 c         1 MOL      0.563470
     65 O12        -5.3890   -4.7900    2.4380 o         1 MOL     -0.587554
     66 H26        -5.7690   -1.6860   -0.2150 hn        1 MOL      0.292297
     67 H27        -7.1350   -4.2460    0.4870 h1        1 MOL      0.133733
     68 H28        -6.9620   -2.7810    1.5440 h1        1 MOL      0.133733
     69 N8         -4.0290   -3.7800    0.9170 n         1 MOL     -0.302320
     70 C22        -2.7960   -4.4180    1.4780 c3        1 MOL     -0.092941
     71 C23        -1.5790   -3.4670    1.3370 c         1 MOL      0.626663
     72 O13        -1.5890   -2.5730    0.5040 o         1 MOL     -0.584068
     73 C24        -2.3650   -5.7720    0.8320 c3        1 MOL      0.566468
     74 C25        -2.8460   -6.9670    1.6540 c3        1 MOL     -0.516637
     75 O14        -2.8640   -5.8890   -0.4250 oh        1 MOL     -0.647650
     76 H29        -4.0530   -3.1680    0.1110 hn        1 MOL      0.233291
     77 H30        -3.0220   -4.5820    2.5310 h1        1 MOL      0.061691
     78 H31        -1.2860   -5.8920    0.7540 h1        1 MOL      0.003676
     79 H32        -3.7870   -6.1390   -0.3480 ho        1 MOL      0.387684
     80 H33        -2.6380   -6.9060    2.7210 hc        1 MOL      0.110953
     81 H34        -3.8990   -7.1260    1.4540 hc        1 MOL      0.110953
     82 H35        -2.3920   -7.8890    1.2770 hc        1 MOL      0.110953
     83 N9         -0.5280   -3.6320    2.1570 n         1 MOL     -0.546546
     84 C26         0.7340   -2.8590    2.1810 c3        1 MOL     -0.013707
     85 C27         1.5730   -3.0760    0.9690 c         1 MOL      0.692755
     86 O15         2.0470   -4.1490    0.7530 o         1 MOL     -0.610429
     87 C28         1.5210   -3.2450    3.4480 c3        1 MOL      0.056505
     88 C29         0.8790   -2.5750    4.6960 c3        1 MOL      0.126633
     89 C30         2.9770   -2.7930    3.4310 c3        1 MOL     -0.218713
     90 C31         1.4340   -3.0540    5.9550 c3        1 MOL     -0.189968
     91 H36        -0.6160   -4.5080    2.6530 hn        1 MOL      0.255291
     92 H37         0.5290   -1.8130    2.3580 h1        1 MOL      0.048441
     93 H38         1.3660   -4.3170    3.5920 hc        1 MOL      0.013598
     94 H39        -0.1880   -2.7560    4.7070 hc        1 MOL     -0.007231
     95 H40         1.0840   -1.5050    4.6280 hc        1 MOL     -0.007231
     96 H41         3.6250   -2.8890    4.3000 hc        1 MOL      0.042158
     97 H42         3.5440   -3.3110    2.6560 hc        1 MOL      0.042158
     98 H43         3.0900   -1.7760    3.0460 hc        1 MOL      0.042158
     99 H44         1.8220   -4.0620    5.8520 hc        1 MOL      0.035406
    100 H45         2.2740   -2.4440    6.2630 hc        1 MOL      0.035406
    101 H46         0.7300   -2.9670    6.7920 hc        1 MOL      0.035406
    102 N10         1.7670   -1.9650    0.2070 n         1 MOL     -0.311671
    103 C32         2.6270   -2.0200   -0.9900 c3        1 MOL     -0.037254
    104 C33         4.0140   -1.5960   -0.6090 c         1 MOL      0.608922
    105 O16         4.2370   -0.9310    0.3870 o         1 MOL     -0.408798
    106 C34         2.0730   -1.2080   -2.2240 c3        1 MOL     -0.249859
    107 C35         0.5990   -1.4550   -2.6760 c         1 MOL      0.662514
    108 O17        -0.3740   -0.9300   -2.0230 o         1 MOL     -0.655577
    109 O18         0.2220   -1.9510   -3.7510 o         1 MOL     -0.655577
    110 H47         1.3960   -1.1170    0.6010 hn        1 MOL      0.173381
    111 H48         2.6730   -3.0660   -1.2780 h1        1 MOL      0.082480
    112 H49         2.7250   -1.3530   -3.0860 hc        1 MOL      0.077158
    113 H50         2.1960   -0.1590   -1.9430 hc        1 MOL      0.077158
    114 N11         4.9670   -1.9220   -1.5110 n         1 MOL     -0.756031
    115 C36         6.4370   -1.5330   -1.3370 c3        1 MOL      0.488933
    116 C37         6.6860   -0.0560   -0.9340 c         1 MOL      0.167041
    117 O19         7.2510    0.0580    0.1610 o         1 MOL     -0.487984
    118 C38         7.2500   -2.0320   -2.6170 c3        1 MOL     -0.421858
    119 C39         8.6280   -1.5210   -2.6740 ca        1 MOL      0.329725
    120 C40         9.5760   -1.9620   -1.6970 ca        1 MOL     -0.312783
    121 C41         9.0080   -0.7820   -3.8140 ca        1 MOL     -0.312783
    122 C42        10.9110   -1.4940   -1.7940 ca        1 MOL      0.028271
    123 C43        10.3620   -0.4030   -3.9130 ca        1 MOL      0.028271
    124 C44        11.2960   -0.8030   -2.9540 ca        1 MOL     -0.280501
    125 H51         4.7090   -2.3820   -2.3620 hn        1 MOL      0.366577
    126 H52         6.8850   -2.1170   -0.5250 h1        1 MOL      0.032546
    127 H53         6.6990   -1.6020   -3.4530 hc        1 MOL      0.102287
    128 H54         7.2200   -3.1270   -2.5380 hc        1 MOL      0.102287
    129 H55         9.3380   -2.6010   -0.8510 ha        1 MOL      0.162034
    130 H56         8.3370   -0.4750   -4.5970 ha        1 MOL      0.162034
    131 H57        11.6330   -1.7700   -1.0370 ha        1 MOL      0.084437
    132 H58        10.6700    0.0880   -4.8320 ha        1 MOL      0.084437
    133 H59        12.3420   -0.5270   -2.9840 ha        1 MOL      0.134136
    134 N12         6.2740    1.0260   -1.5560 n         1 MOL     -0.003473
    135 C45         6.4120    2.4040   -1.0110 c3        1 MOL      0.007700
    136 C46         5.6740    2.6190    0.3190 c         1 MOL      0.331347
    137 O20         5.9680    3.5720    1.0370 o         1 MOL     -0.532476
    138 C47         5.9490    3.4140   -2.1160 c3        1 MOL     -0.110937
    139 C48         5.8290    2.5430   -3.3300 c3        1 MOL      0.133371
    140 C49         5.5930    1.1040   -2.8530 c3        1 MOL     -0.086725
    141 H60         7.4690    2.6150   -0.8420 h1        1 MOL      0.085946
    142 H61         4.9640    3.7940   -1.8360 hc        1 MOL      0.061278
    143 H62         6.5670    4.2970   -2.2670 hc        1 MOL      0.061278
    144 H63         5.0590    2.8070   -4.0540 hc        1 MOL     -0.022535
    145 H64         6.8170    2.6110   -3.7790 hc        1 MOL     -0.022535
    146 H65         4.5290    0.9090   -2.8000 h1        1 MOL      0.049805
    147 H66         6.0550    0.4880   -3.6300 h1        1 MOL      0.049805
    148 N13         4.7740    1.7510    0.7560 n         1 MOL     -0.104493
    149 C50         3.9950    1.7980    2.0300 c3        1 MOL     -0.057503
    150 C51         4.7220    1.0410    3.1280 c         1 MOL      0.460582
    151 O21         4.5920    1.4680    4.3080 o         1 MOL     -0.575534
    152 C52         2.6020    1.1760    1.9770 c3        1 MOL     -0.158773
    153 C53         1.7600    1.8390    0.9090 c3        1 MOL      0.411495
    154 C54         0.3460    1.3350    0.6970 c         1 MOL      0.410191
    155 O22        -0.0760    0.1610    1.0490 o         1 MOL     -0.696102
    156 O23        -0.5060    2.0810    0.1440 o         1 MOL     -0.696102
    157 H67         4.6140    0.8670    0.3110 hn        1 MOL      0.096697
    158 H68         3.7890    2.7730    2.4670 h1        1 MOL      0.102918
    159 H69         2.1720    1.4500    2.9400 hc        1 MOL      0.068300
    160 H70         2.5910    0.0980    1.8570 hc        1 MOL      0.068300
    161 H71         2.3080    1.7710   -0.0340 hc        1 MOL     -0.049841
    162 H72         1.7600    2.9270    1.0040 hc        1 MOL     -0.049841
    163 N14         5.5960    0.0940    2.7200 n         1 MOL      0.003208
    164 C55         6.6790   -0.4330    3.5220 c3        1 MOL     -0.245799
    165 H73         7.5410    0.2300    3.4490 h1        1 MOL      0.084736
    166 H74         6.3610   -0.5010    4.5630 h1        1 MOL      0.084736
    167 H75         6.9510   -1.4250    3.1600 h1        1 MOL      0.084736
    168 H76         5.6280   -0.0670    1.7300 hn        1 MOL      0.068800
    169 Ca1        -2.0850   -0.0970   -0.4700 Ca        1 MOL      1.705055
    170 O24        -4.2870   -0.8760    1.0110 oh        1 MOL     -0.879881
    171 H77        -3.9370   -1.2470    1.8110 ho        1 MOL      0.394577
    172 H78        -4.7690   -0.0980    1.2860 ho        1 MOL      0.394577
@<TRIPOS>BOND
     1    1    2 1   
     2    1    4 1   
     3    1    5 1   
     4    1    6 1   
     5    2    3 2   
     6    2    7 1   
     7    7    8 1   
     8    7   15 1   
     9    8    9 1   
    10    8   11 1   
    11    8   16 1   
    12    9   10 2   
    13    9   19 1   
    14   11   12 1   
    15   11   17 1   
    16   11   18 1   
    17   12   13 1   
    18   12   14 1   
    19   19   20 1   
    20   19   24 1   
    21   20   21 1   
    22   20   23 1   
    23   20   25 1   
    24   21   22 2   
    25   21   29 1   
    26   23   26 1   
    27   23   27 1   
    28   23   28 1   
    29   29   30 1   
    30   29   37 1   
    31   30   31 1   
    32   30   33 1   
    33   30   38 1   
    34   31   32 2   
    35   31   41 1   
    36   33   34 1   
    37   33   39 1   
    38   33   40 1   
    39   34   35 1   
    40   34   36 1   
    41   41   42 1   
    42   41   45 1   
    43   42   43 1   
    44   42   46 1   
    45   42   47 1   
    46   43   44 2   
    47   43   48 1   
    48   48   49 1   
    49   48   56 1   
    50   49   50 1   
    51   49   52 1   
    52   49   57 1   
    53   50   51 2   
    54   50   62 1   
    55   52   53 1   
    56   52   58 1   
    57   52   59 1   
    58   53   54 1   
    59   53   55 2   
    60   54   60 1   
    61   54   61 1   
    62   62   63 1   
    63   62   66 1   
    64   63   64 1   
    65   63   67 1   
    66   63   68 1   
    67   64   65 2   
    68   64   69 1   
    69   69   70 1   
    70   69   76 1   
    71   70   71 1   
    72   70   73 1   
    73   70   77 1   
    74   71   72 2   
    75   71   83 1   
    76   73   74 1   
    77   73   75 1   
    78   73   78 1   
    79   74   80 1   
    80   74   81 1   
    81   74   82 1   
    82   75   79 1   
    83   83   84 1   
    84   83   91 1   
    85   84   85 1   
    86   84   87 1   
    87   84   92 1   
    88   85   86 2   
    89   85  102 1   
    90   87   88 1   
    91   87   89 1   
    92   87   93 1   
    93   88   90 1   
    94   88   94 1   
    95   88   95 1   
    96   89   96 1   
    97   89   97 1   
    98   89   98 1   
    99   90   99 1   
   100   90  100 1   
   101   90  101 1   
   102  102  103 1   
   103  102  110 1   
   104  103  104 1   
   105  103  106 1   
   106  103  111 1   
   107  104  105 2   
   108  104  114 1   
   109  106  107 1   
   110  106  112 1   
   111  106  113 1   
   112  107  108 1   
   113  107  109 1   
   114  114  115 1   
   115  114  125 1   
   116  115  116 1   
   117  115  118 1   
   118  115  126 1   
   119  116  117 2   
   120  116  134 1   
   121  118  119 1   
   122  118  127 1   
   123  118  128 1   
   124  119  120 ar  
   125  119  121 ar  
   126  120  122 ar  
   127  120  129 1   
   128  121  123 ar  
   129  121  130 1   
   130  122  124 ar  
   131  122  131 1   
   132  123  124 ar  
   133  123  132 1   
   134  124  133 1   
   135  134  135 1   
   136  134  140 1   
   137  135  136 1   
   138  135  138 1   
   139  135  141 1   
   140  136  137 2   
   141  136  148 1   
   142  138  139 1   
   143  138  142 1   
   144  138  143 1   
   145  139  140 1   
   146  139  144 1   
   147  139  145 1   
   148  140  146 1   
   149  140  147 1   
   150  148  149 1   
   151  148  157 1   
   152  149  150 1   
   153  149  152 1   
   154  149  158 1   
   155  150  151 2   
   156  150  163 1   
   157  152  153 1   
   158  152  159 1   
   159  152  160 1   
   160  153  154 1   
   161  153  161 1   
   162  153  162 1   
   163  154  155 1   
   164  154  156 1   
   165  163  164 1   
   166  163  168 1   
   167  164  165 1   
   168  164  166 1   
   169  164  167 1   
   170  170  171 1   
   171  170  172 1   
@<TRIPOS>SUBSTRUCTURE
     1 MOL         1 TEMP              0 ****  ****    0 ROOT
