@<TRIPOS>MOLECULE
MOL
  175   173     1     0     0
SMALL
resp


@<TRIPOS>ATOM
      1 C1          0.2430    4.2020    5.6010 c3        1 MOL     -0.329931
      2 C2         -0.3210    4.1350    4.1590 c         1 MOL      0.712128
      3 O1          0.3680    4.4200    3.1670 o         1 MOL     -0.556287
      4 H1          1.1220    4.8460    5.6170 hc        1 MOL      0.081952
      5 H2         -0.5160    4.6080    6.2710 hc        1 MOL      0.081952
      6 H3          0.5210    3.2010    5.9310 hc        1 MOL      0.081952
      7 N1         -1.5900    3.7160    3.9870 n         1 MOL     -0.614398
      8 C3         -2.1010    3.3600    2.7160 c3        1 MOL      0.187412
      9 C4         -2.3640    4.5630    1.7330 c         1 MOL      0.552047
     10 O2         -2.7540    5.6170    2.2670 o         1 MOL     -0.558622
     11 C5         -3.3930    2.5960    2.9470 c3        1 MOL     -0.292387
     12 C6         -4.1620    2.4140    1.6390 c         1 MOL      0.642909
     13 O3         -5.2950    3.0490    1.4580 o         1 MOL     -0.636743
     14 O4         -3.6610    1.7090    0.7650 o         1 MOL     -0.636743
     15 H4         -2.2480    3.4870    4.7150 hn        1 MOL      0.321805
     16 H5         -1.3550    2.7430    2.2070 h1        1 MOL      0.038648
     17 H6         -3.9510    3.2310    3.6350 hc        1 MOL      0.046611
     18 H7         -3.1910    1.6830    3.5070 hc        1 MOL      0.046611
     19 N2         -2.1740    4.4350    0.4160 n         1 MOL     -0.513108
     20 C7         -2.5170    5.4800   -0.5750 c3        1 MOL      0.383215
     21 C8         -3.7270    5.0910   -1.4910 c         1 MOL      0.416745
     22 O5         -4.2400    5.9520   -2.2270 o         1 MOL     -0.565756
     23 C9         -1.2560    5.8100   -1.2900 c3        1 MOL     -0.313548
     24 H8         -1.5970    3.6820    0.0560 hn        1 MOL      0.313575
     25 H9         -2.8070    6.3520    0.0090 h1        1 MOL     -0.009894
     26 H10        -0.4890    6.1650   -0.5990 hc        1 MOL      0.070929
     27 H11        -0.8910    4.9000   -1.7660 hc        1 MOL      0.070929
     28 H12        -1.3810    6.6780   -1.9410 hc        1 MOL      0.070929
     29 N3         -4.2910    3.8020   -1.4470 n         1 MOL     -0.252765
     30 C10        -5.1970    3.3290   -2.5520 c3        1 MOL      0.007358
     31 C11        -6.3100    2.3680   -2.1560 c         1 MOL      0.412015
     32 O6         -7.2080    2.1070   -3.0150 o         1 MOL     -0.587376
     33 C12        -4.3550    2.7170   -3.6400 c3        1 MOL      0.041939
     34 C13        -3.3580    1.6300   -3.1970 c         1 MOL      0.639938
     35 O7         -2.4640    1.3170   -4.0300 o         1 MOL     -0.690764
     36 O8         -3.5630    0.9600   -2.1340 o         1 MOL     -0.690764
     37 H13        -3.9060    3.0950   -0.8360 hn        1 MOL      0.099137
     38 H14        -5.6930    4.1790   -3.0310 h1        1 MOL      0.082368
     39 H15        -3.7370    3.5480   -4.0090 hc        1 MOL     -0.012698
     40 H16        -4.9720    2.3500   -4.4650 hc        1 MOL     -0.012698
     41 N4         -6.3800    1.9170   -0.9100 n         1 MOL     -0.156156
     42 C14        -7.4910    1.0280   -0.4820 c3        1 MOL     -0.130230
     43 C15        -7.5060   -0.4170   -0.9440 c         1 MOL      0.549963
     44 O9         -8.3990   -1.1320   -0.5890 o         1 MOL     -0.619245
     45 H17        -5.7740    2.3630   -0.2430 hn        1 MOL      0.161906
     46 H18        -8.3910    1.4960   -0.8780 h1        1 MOL      0.086366
     47 H19        -7.6630    1.0790    0.5940 h1        1 MOL      0.086366
     48 N5         -6.4890   -0.9590   -1.6260 n         1 MOL     -0.242748
     49 C16        -6.2810   -2.3270   -2.0350 c3        1 MOL     -0.040585
     50 C17        -6.1000   -3.3970   -0.9240 c         1 MOL      0.478280
     51 O10        -5.9490   -4.5730   -1.2570 o         1 MOL     -0.530695
     52 C18        -5.1480   -2.2850   -3.0980 c3        1 MOL     -0.249405
     53 C19        -3.7610   -2.1870   -2.5470 c         1 MOL      0.724695
     54 N6         -2.7240   -2.2370   -3.2740 n         1 MOL     -0.743524
     55 O11        -3.5970   -2.1510   -1.3440 o         1 MOL     -0.590974
     56 H20        -5.7390   -0.3210   -1.8360 hn        1 MOL      0.147208
     57 H21        -7.2090   -2.7100   -2.4550 h1        1 MOL      0.112120
     58 H22        -5.3110   -1.5250   -3.8760 hc        1 MOL      0.090237
     59 H23        -5.2000   -3.1940   -3.6990 hc        1 MOL      0.090237
     60 H24        -2.7270   -1.9330   -4.2410 hn        1 MOL      0.372671
     61 H25        -1.8100   -2.2210   -2.8490 hn        1 MOL      0.372671
     62 N7         -6.2820   -3.1160    0.3850 n         1 MOL     -0.276467
     63 C20        -6.0940   -4.0730    1.5110 c3        1 MOL     -0.157317
     64 C21        -4.6620   -4.6930    1.7240 c         1 MOL      0.569203
     65 O12        -4.5790   -5.6250    2.4600 o         1 MOL     -0.541538
     66 H26        -6.4740   -2.1460    0.6180 hn        1 MOL      0.265463
     67 H27        -6.8750   -4.8220    1.4290 h1        1 MOL      0.080306
     68 H28        -6.2380   -3.5220    2.4330 h1        1 MOL      0.080306
     69 N8         -3.5680   -4.0660    1.1370 n         1 MOL     -0.148099
     70 C22        -2.1670   -4.5210    1.3540 c3        1 MOL     -0.623249
     71 C23        -1.1680   -3.4050    1.5320 c         1 MOL      0.707755
     72 O13        -1.2460   -2.4290    0.8050 o         1 MOL     -0.549097
     73 C24        -1.6840   -5.4260    0.2510 c3        1 MOL      0.651563
     74 C25        -2.4080   -6.7310    0.2970 c3        1 MOL     -0.459301
     75 O14        -1.8150   -4.7640   -1.0310 oh        1 MOL     -0.587170
     76 H29        -3.6440   -3.3170    0.4700 hn        1 MOL      0.211605
     77 H30        -2.1400   -5.0490    2.3120 h1        1 MOL      0.158295
     78 H31        -0.6080   -5.5570    0.3390 h1        1 MOL     -0.033994
     79 H32        -1.9630   -3.8470   -0.7770 ho        1 MOL      0.320687
     80 H33        -3.2360   -6.7170   -0.4110 hc        1 MOL      0.109094
     81 H34        -1.6600   -7.4490   -0.0260 hc        1 MOL      0.109094
     82 H35        -2.7140   -7.0900    1.2850 hc        1 MOL      0.109094
     83 N9         -0.1890   -3.5680    2.3870 n         1 MOL     -0.485521
     84 C26         0.9620   -2.6980    2.2020 c3        1 MOL     -0.019367
     85 C27         1.6700   -2.9560    0.8960 c         1 MOL      0.475604
     86 O15         1.9200   -4.1530    0.5980 o         1 MOL     -0.589279
     87 C28         1.9040   -2.8670    3.4260 c3        1 MOL      0.218481
     88 C29         1.2910   -2.4060    4.7650 c3        1 MOL      0.096065
     89 C30         3.2850   -2.2530    3.1920 c3        1 MOL     -0.351508
     90 C31         1.7430   -3.0930    6.0100 c3        1 MOL     -0.104948
     91 H36        -0.1370   -4.3980    2.9760 hn        1 MOL      0.295184
     92 H37         0.6050   -1.6680    2.1130 h1        1 MOL     -0.006866
     93 H38         2.1090   -3.9370    3.4420 hc        1 MOL     -0.028695
     94 H39         0.2040   -2.4980    4.6530 hc        1 MOL     -0.028646
     95 H40         1.4150   -1.3380    4.9030 hc        1 MOL     -0.028646
     96 H41         3.7130   -2.2050    4.1930 hc        1 MOL      0.074038
     97 H42         3.8570   -2.8260    2.4600 hc        1 MOL      0.074038
     98 H43         3.1590   -1.2890    2.7020 hc        1 MOL      0.074038
     99 H44         1.2600   -2.6740    6.8900 hc        1 MOL      0.016864
    100 H45         1.5320   -4.1570    6.0160 hc        1 MOL      0.016864
    101 H46         2.8100   -2.9340    6.1320 hc        1 MOL      0.016864
    102 N10         1.8140   -1.9320    0.1060 n         1 MOL     -0.088879
    103 C32         2.5940   -1.8790   -1.0980 c3        1 MOL     -0.150942
    104 C33         4.0320   -1.4650   -0.7350 c         1 MOL      0.472013
    105 O16         4.3520   -0.7750    0.2010 o         1 MOL     -0.303521
    106 C34         1.9500   -0.9790   -2.1870 c3        1 MOL     -0.175080
    107 C35         0.5090   -1.3970   -2.4910 c         1 MOL      0.740412
    108 O17         0.2040   -2.0470   -3.5170 o         1 MOL     -0.695517
    109 O18        -0.3900   -0.9510   -1.7950 o         1 MOL     -0.695517
    110 H47         1.5420   -1.0560    0.5280 hn        1 MOL      0.262240
    111 H48         2.6030   -2.8800   -1.5360 h1        1 MOL      0.100908
    112 H49         2.5150   -1.0440   -3.1230 hc        1 MOL      0.058226
    113 H50         2.0260    0.0720   -1.9280 hc        1 MOL      0.058226
    114 N11         5.0310   -1.9640   -1.5800 n         1 MOL     -0.651279
    115 C36         6.4200   -1.6490   -1.2680 c3        1 MOL      0.371670
    116 C37         6.7170   -0.1030   -1.0200 c         1 MOL      0.317385
    117 O19         7.4520    0.2050   -0.1010 o         1 MOL     -0.467156
    118 C38         7.2870   -2.1800   -2.4070 c3        1 MOL     -0.220309
    119 C39         8.7410   -1.7710   -2.1340 ca        1 MOL      0.205325
    120 C40         9.3860   -0.6820   -2.7680 ca        1 MOL     -0.288988
    121 C41         9.5290   -2.5130   -1.2370 ca        1 MOL     -0.288988
    122 C42        10.7180   -0.3290   -2.4910 ca        1 MOL     -0.010476
    123 C43        10.9170   -2.1820   -1.0860 ca        1 MOL     -0.010476
    124 C44        11.5080   -1.1030   -1.6880 ca        1 MOL     -0.182744
    125 H51         4.8000   -2.5070   -2.3970 hn        1 MOL      0.343779
    126 H52         6.7300   -2.2080   -0.3940 h1        1 MOL      0.026984
    127 H53         7.0410   -1.6870   -3.3510 hc        1 MOL      0.060641
    128 H54         7.3300   -3.2500   -2.5970 hc        1 MOL      0.060641
    129 H55         8.8360   -0.0810   -3.4770 ha        1 MOL      0.142384
    130 H56         9.1340   -3.3480   -0.6750 ha        1 MOL      0.142384
    131 H57        11.1620    0.5430   -2.9330 ha        1 MOL      0.081872
    132 H58        11.5020   -2.8550   -0.4780 ha        1 MOL      0.081872
    133 H59        12.5490   -0.8330   -1.5640 ha        1 MOL      0.114910
    134 N12         6.1360    0.8590   -1.8350 n         1 MOL      0.059213
    135 C45         6.4520    2.2670   -1.5840 c3        1 MOL     -0.005401
    136 C46         5.7840    2.8030   -0.2840 c         1 MOL      0.284633
    137 O20         6.1890    3.7990    0.2480 o         1 MOL     -0.479789
    138 C47         5.9330    3.0610   -2.7910 c3        1 MOL     -0.044185
    139 C48         5.7690    2.0020   -3.8580 c3        1 MOL     -0.011486
    140 C49         5.3360    0.8380   -3.0340 c3        1 MOL     -0.286257
    141 H60         7.5270    2.3550   -1.4760 h1        1 MOL      0.071808
    142 H61         4.9560    3.4790   -2.5370 hc        1 MOL      0.046767
    143 H62         6.6530    3.8090   -3.1370 hc        1 MOL      0.046767
    144 H63         5.0380    2.2860   -4.6170 hc        1 MOL      0.027798
    145 H64         6.7680    1.7890   -4.2220 hc        1 MOL      0.027798
    146 H65         4.2700    0.9630   -2.8490 h1        1 MOL      0.115458
    147 H66         5.6030   -0.0480   -3.6040 h1        1 MOL      0.115458
    148 N13         4.7160    2.0890    0.1510 n         1 MOL     -0.034270
    149 C50         4.0890    2.4780    1.3950 c3        1 MOL     -0.243164
    150 C51         4.8600    1.9300    2.6110 c         1 MOL      0.468230
    151 O21         4.8250    2.4810    3.7360 o         1 MOL     -0.568185
    152 C52         2.5960    2.0490    1.4940 c3        1 MOL      0.097148
    153 C53         1.6990    2.4200    0.3090 c3        1 MOL      0.010688
    154 C54         0.3860    1.6530    0.2390 c         1 MOL      0.565497
    155 O22        -0.6260    2.2170   -0.1620 o         1 MOL     -0.682167
    156 O23         0.3170    0.4830    0.6160 o         1 MOL     -0.682167
    157 H67         4.5400    1.1530   -0.2030 hn        1 MOL      0.009523
    158 H68         4.0010    3.5640    1.4370 h1        1 MOL      0.151704
    159 H69         2.0960    2.6060    2.2890 hc        1 MOL     -0.016597
    160 H70         2.5590    0.9810    1.6990 hc        1 MOL     -0.016597
    161 H71         2.2010    2.2780   -0.6580 hc        1 MOL      0.029379
    162 H72         1.4090    3.4610    0.2970 hc        1 MOL      0.029379
    163 N14         5.6080    0.8550    2.4120 n         1 MOL      0.018235
    164 C55         6.4870    0.3980    3.5050 c3        1 MOL     -0.244015
    165 H73         6.1660    0.8520    4.4430 h1        1 MOL      0.088684
    166 H74         6.4300   -0.6870    3.5880 h1        1 MOL      0.088684
    167 H75         7.5150    0.6930    3.2930 h1        1 MOL      0.088684
    168 H76         5.5210    0.3810    1.5320 hn        1 MOL      0.030621
    169 Ca1        -2.1600    0.0330   -0.1790 Ca        1 MOL      1.651524
    170 O24        -1.5430   -0.0800    2.5470 oh        1 MOL     -0.778579
    171 H77        -1.7230    0.0460    3.4860 ho        1 MOL      0.381796
    172 H78        -0.6490    0.2170    2.4320 ho        1 MOL      0.381796
    173 O25        -4.2620   -1.2090    1.3270 oh        1 MOL     -0.778579
    174 H79        -4.9660   -0.6820    1.6860 ho        1 MOL      0.381796
    175 H80        -3.7760   -1.5160    2.0920 ho        1 MOL      0.381796
@<TRIPOS>BOND
     1    1    2 1   
     2    1    4 1   
     3    1    5 1   
     4    1    6 1   
     5    2    3 2   
     6    2    7 1   
     7    7    8 1   
     8    7   15 1   
     9    8    9 1   
    10    8   11 1   
    11    8   16 1   
    12    9   10 2   
    13    9   19 1   
    14   11   12 1   
    15   11   17 1   
    16   11   18 1   
    17   12   13 1   
    18   12   14 1   
    19   19   20 1   
    20   19   24 1   
    21   20   21 1   
    22   20   23 1   
    23   20   25 1   
    24   21   22 2   
    25   21   29 1   
    26   23   26 1   
    27   23   27 1   
    28   23   28 1   
    29   29   30 1   
    30   29   37 1   
    31   30   31 1   
    32   30   33 1   
    33   30   38 1   
    34   31   32 2   
    35   31   41 1   
    36   33   34 1   
    37   33   39 1   
    38   33   40 1   
    39   34   35 1   
    40   34   36 1   
    41   41   42 1   
    42   41   45 1   
    43   42   43 1   
    44   42   46 1   
    45   42   47 1   
    46   43   44 2   
    47   43   48 1   
    48   48   49 1   
    49   48   56 1   
    50   49   50 1   
    51   49   52 1   
    52   49   57 1   
    53   50   51 2   
    54   50   62 1   
    55   52   53 1   
    56   52   58 1   
    57   52   59 1   
    58   53   54 1   
    59   53   55 2   
    60   54   60 1   
    61   54   61 1   
    62   62   63 1   
    63   62   66 1   
    64   63   64 1   
    65   63   67 1   
    66   63   68 1   
    67   64   65 2   
    68   64   69 1   
    69   69   70 1   
    70   69   76 1   
    71   70   71 1   
    72   70   73 1   
    73   70   77 1   
    74   71   72 2   
    75   71   83 1   
    76   73   74 1   
    77   73   75 1   
    78   73   78 1   
    79   74   80 1   
    80   74   81 1   
    81   74   82 1   
    82   75   79 1   
    83   83   84 1   
    84   83   91 1   
    85   84   85 1   
    86   84   87 1   
    87   84   92 1   
    88   85   86 2   
    89   85  102 1   
    90   87   88 1   
    91   87   89 1   
    92   87   93 1   
    93   88   90 1   
    94   88   94 1   
    95   88   95 1   
    96   89   96 1   
    97   89   97 1   
    98   89   98 1   
    99   90   99 1   
   100   90  100 1   
   101   90  101 1   
   102  102  103 1   
   103  102  110 1   
   104  103  104 1   
   105  103  106 1   
   106  103  111 1   
   107  104  105 2   
   108  104  114 1   
   109  106  107 1   
   110  106  112 1   
   111  106  113 1   
   112  107  108 1   
   113  107  109 1   
   114  114  115 1   
   115  114  125 1   
   116  115  116 1   
   117  115  118 1   
   118  115  126 1   
   119  116  117 2   
   120  116  134 1   
   121  118  119 1   
   122  118  127 1   
   123  118  128 1   
   124  119  120 ar  
   125  119  121 ar  
   126  120  122 ar  
   127  120  129 1   
   128  121  123 ar  
   129  121  130 1   
   130  122  124 ar  
   131  122  131 1   
   132  123  124 ar  
   133  123  132 1   
   134  124  133 1   
   135  134  135 1   
   136  134  140 1   
   137  135  136 1   
   138  135  138 1   
   139  135  141 1   
   140  136  137 2   
   141  136  148 1   
   142  138  139 1   
   143  138  142 1   
   144  138  143 1   
   145  139  140 1   
   146  139  144 1   
   147  139  145 1   
   148  140  146 1   
   149  140  147 1   
   150  148  149 1   
   151  148  157 1   
   152  149  150 1   
   153  149  152 1   
   154  149  158 1   
   155  150  151 2   
   156  150  163 1   
   157  152  153 1   
   158  152  159 1   
   159  152  160 1   
   160  153  154 1   
   161  153  161 1   
   162  153  162 1   
   163  154  155 1   
   164  154  156 1   
   165  163  164 1   
   166  163  168 1   
   167  164  165 1   
   168  164  166 1   
   169  164  167 1   
   170  170  171 1   
   171  170  172 1   
   172  173  174 1   
   173  173  175 1   
@<TRIPOS>SUBSTRUCTURE
     1 MOL         1 TEMP              0 ****  ****    0 ROOT
