@<TRIPOS>MOLECULE
MOL
  175   173     1     0     0
SMALL
resp


@<TRIPOS>ATOM
      1 C1          0.6240    3.7860    5.7710 c3        1 MOL     -0.405345
      2 C2          0.1140    3.9120    4.3650 c         1 MOL      0.704569
      3 O1          0.8220    4.1440    3.4080 o         1 MOL     -0.549814
      4 H1          0.7840    4.7800    6.1900 hc        1 MOL      0.099658
      5 H2         -0.1080    3.2510    6.3770 hc        1 MOL      0.099658
      6 H3          1.5660    3.2370    5.7700 hc        1 MOL      0.099658
      7 N1         -1.1630    3.7570    4.1640 n         1 MOL     -0.571972
      8 C3         -1.8020    3.5190    2.8570 c3        1 MOL      0.090390
      9 C4         -1.7690    4.7170    1.8580 c         1 MOL      0.644324
     10 O2         -1.7100    5.8920    2.2320 o         1 MOL     -0.577682
     11 C5         -3.2890    3.2020    3.0970 c3        1 MOL     -0.342080
     12 C6         -4.0940    2.7200    1.8170 c         1 MOL      0.681019
     13 O3         -3.6130    1.9170    0.9810 o         1 MOL     -0.623838
     14 O4         -5.2150    3.2580    1.6550 o         1 MOL     -0.623838
     15 H4         -1.7680    3.5440    4.9520 hn        1 MOL      0.300890
     16 H5         -1.2600    2.6690    2.4580 h1        1 MOL      0.073967
     17 H6         -3.7980    4.0600    3.5270 hc        1 MOL      0.075756
     18 H7         -3.3540    2.3520    3.7740 hc        1 MOL      0.075756
     19 N2         -1.8720    4.3660    0.5850 n         1 MOL     -0.559784
     20 C7         -1.7980    5.3500   -0.5760 c3        1 MOL      0.322419
     21 C8         -2.8440    5.0780   -1.6780 c         1 MOL      0.323812
     22 O5         -3.0050    5.8640   -2.6410 o         1 MOL     -0.560621
     23 C9         -0.3810    5.3860   -1.1200 c3        1 MOL     -0.334326
     24 H8         -1.7980    3.3720    0.4370 hn        1 MOL      0.360158
     25 H9         -2.0670    6.3100   -0.1450 h1        1 MOL      0.031131
     26 H10        -0.1120    4.4990   -1.6970 hc        1 MOL      0.087486
     27 H11        -0.2500    6.2140   -1.8110 hc        1 MOL      0.087486
     28 H12         0.3230    5.6230   -0.3230 hc        1 MOL      0.087486
     29 N3         -3.6380    4.0070   -1.6000 n         1 MOL     -0.081917
     30 C10        -4.6470    3.6940   -2.5630 c3        1 MOL     -0.118123
     31 C11        -5.9590    2.8710   -2.1670 c         1 MOL      0.423635
     32 O6         -6.8900    2.8350   -2.8890 o         1 MOL     -0.553241
     33 C12        -3.8170    2.9570   -3.7030 c3        1 MOL      0.153372
     34 C13        -2.9250    1.7990   -3.3420 c         1 MOL      0.615235
     35 O7         -3.0740    1.1650   -2.2300 o         1 MOL     -0.663309
     36 O8         -2.1970    1.3860   -4.2540 o         1 MOL     -0.663309
     37 H13        -3.4470    3.3520   -0.8560 hn        1 MOL      0.056987
     38 H14        -4.9980    4.6410   -2.9700 h1        1 MOL      0.093109
     39 H15        -3.2170    3.6910   -4.2350 hc        1 MOL     -0.038889
     40 H16        -4.5370    2.6370   -4.4580 hc        1 MOL     -0.038889
     41 N4         -6.0090    2.3190   -0.9880 n         1 MOL      0.084338
     42 C14        -7.1570    1.6150   -0.5230 c3        1 MOL     -0.260422
     43 C15        -7.2590    0.1990   -1.1370 c         1 MOL      0.481190
     44 O9         -8.3180   -0.4250   -1.0540 o         1 MOL     -0.594524
     45 H17        -5.2670    2.4430   -0.3190 hn        1 MOL     -0.039203
     46 H18        -8.0460    2.1970   -0.7580 h1        1 MOL      0.117007
     47 H19        -7.1010    1.3960    0.5450 h1        1 MOL      0.117007
     48 N5         -6.1840   -0.4350   -1.6860 n         1 MOL     -0.129459
     49 C16        -6.2600   -1.8390   -2.1600 c3        1 MOL     -0.052008
     50 C17        -6.3430   -3.0290   -1.1930 c         1 MOL      0.399241
     51 O10        -6.3690   -4.2330   -1.6340 o         1 MOL     -0.498853
     52 C18        -5.0710   -2.0550   -3.0980 c3        1 MOL     -0.288599
     53 C19        -3.7910   -2.3660   -2.3600 c         1 MOL      0.608338
     54 N6         -2.8010   -2.9430   -3.0010 n         1 MOL     -0.638085
     55 O11        -3.6290   -2.0550   -1.1860 o         1 MOL     -0.586945
     56 H20        -5.3990    0.1890   -1.8030 hn        1 MOL      0.101629
     57 H21        -7.1480   -1.9210   -2.7850 h1        1 MOL      0.119271
     58 H22        -4.8640   -1.2300   -3.7700 hc        1 MOL      0.108728
     59 H23        -5.2300   -2.9740   -3.6670 hc        1 MOL      0.108728
     60 H24        -2.9520   -3.2470   -3.9510 hn        1 MOL      0.329569
     61 H25        -1.8480   -2.7140   -2.7880 hn        1 MOL      0.329569
     62 N7         -6.4280   -2.7070    0.1090 n         1 MOL     -0.217962
     63 C20        -6.7000   -3.6520    1.2060 c3        1 MOL     -0.112883
     64 C21        -5.4230   -4.3120    1.6980 c         1 MOL      0.563715
     65 O12        -5.5690   -5.2540    2.4750 o         1 MOL     -0.591690
     66 H26        -6.2970   -1.7340    0.3390 hn        1 MOL      0.237769
     67 H27        -7.4190   -4.4530    1.0370 h1        1 MOL      0.091832
     68 H28        -7.1670   -3.1130    2.0310 h1        1 MOL      0.091832
     69 N8         -4.2140   -3.8620    1.3250 n         1 MOL     -0.376216
     70 C22        -2.9000   -4.4930    1.5980 c3        1 MOL      0.028813
     71 C23        -1.7100   -3.5510    1.5070 c         1 MOL      0.468403
     72 O13        -1.9050   -2.4450    0.9870 o         1 MOL     -0.557511
     73 C24        -2.5450   -5.5770    0.4480 c3        1 MOL      0.359810
     74 C25        -3.2650   -6.8900    0.6630 c3        1 MOL     -0.225295
     75 O14        -3.0920   -5.1560   -0.8430 oh        1 MOL     -0.545187
     76 H29        -4.2540   -3.0530    0.7210 hn        1 MOL      0.235816
     77 H30        -2.9060   -5.0080    2.5590 h1        1 MOL      0.058711
     78 H31        -1.4950   -5.8780    0.5090 h1        1 MOL     -0.017508
     79 H32        -2.7380   -4.2840   -1.0210 ho        1 MOL      0.322221
     80 H33        -3.0730   -7.5680   -0.1640 hc        1 MOL      0.053862
     81 H34        -2.8630   -7.3920    1.5470 hc        1 MOL      0.053862
     82 H35        -4.3230   -6.7580    0.8750 hc        1 MOL      0.053862
     83 N9         -0.5400   -3.9160    2.0550 n         1 MOL     -0.485447
     84 C26         0.6860   -3.1160    1.8890 c3        1 MOL      0.098786
     85 C27         1.4060   -3.2000    0.5250 c         1 MOL      0.522765
     86 O15         1.7710   -4.3390    0.1970 o         1 MOL     -0.592123
     87 C28         1.6630   -3.2680    3.1210 c3        1 MOL      0.117969
     88 C29         0.9090   -2.7200    4.3820 c3        1 MOL      0.008137
     89 C30         3.0330   -2.5490    2.9010 c3        1 MOL     -0.207679
     90 C31         1.7030   -2.7280    5.7230 c3        1 MOL     -0.116290
     91 H36        -0.5080   -4.8470    2.4270 hn        1 MOL      0.285940
     92 H37         0.2900   -2.1000    1.8780 h1        1 MOL      0.095136
     93 H38         1.8670   -4.3370    3.1780 hc        1 MOL     -0.007049
     94 H39         0.0320   -3.3670    4.5060 hc        1 MOL     -0.024818
     95 H40         0.5440   -1.7500    4.0740 hc        1 MOL     -0.024818
     96 H41         3.4570   -2.8200    1.9310 hc        1 MOL      0.038171
     97 H42         3.0710   -1.4700    3.0530 hc        1 MOL      0.038171
     98 H43         3.6970   -3.0450    3.6140 hc        1 MOL      0.038171
     99 H44         1.0920   -2.4950    6.5910 hc        1 MOL      0.029787
    100 H45         2.2680   -3.5990    6.0620 hc        1 MOL      0.029787
    101 H46         2.4150   -1.9120    5.6730 hc        1 MOL      0.029787
    102 N10         1.6250   -2.0540   -0.1330 n         1 MOL     -0.176357
    103 C32         2.5270   -2.0160   -1.2680 c3        1 MOL      0.026998
    104 C33         3.9630   -1.5620   -0.8910 c         1 MOL      0.505520
    105 O16         4.1790   -0.8950    0.1460 o         1 MOL     -0.409528
    106 C34         1.8820   -1.0540   -2.2990 c3        1 MOL     -0.127051
    107 C35         0.4340   -1.3840   -2.6860 c         1 MOL      0.670041
    108 O17        -0.5330   -1.0820   -1.9720 o         1 MOL     -0.672582
    109 O18         0.2680   -2.0700   -3.7540 o         1 MOL     -0.672582
    110 H47         1.2280   -1.1730    0.1650 hn        1 MOL      0.027721
    111 H48         2.6890   -2.9830   -1.7370 h1        1 MOL      0.039297
    112 H49         2.4840   -1.0560   -3.2100 hc        1 MOL      0.040346
    113 H50         1.9790   -0.1010   -1.7970 hc        1 MOL      0.040346
    114 N11         4.9490   -1.7260   -1.7310 n         1 MOL     -0.618073
    115 C36         6.3770   -1.4300   -1.4080 c3        1 MOL      0.285471
    116 C37         6.6060    0.1120   -1.1200 c         1 MOL      0.196851
    117 O19         7.3540    0.4830   -0.1940 o         1 MOL     -0.461852
    118 C38         7.4290   -1.9680   -2.4280 c3        1 MOL     -0.306514
    119 C39         8.9010   -1.8410   -2.0240 ca        1 MOL      0.064998
    120 C40         9.4880   -2.7810   -1.1770 ca        1 MOL     -0.085515
    121 C41         9.7380   -0.9150   -2.6510 ca        1 MOL     -0.085515
    122 C42        10.9010   -2.7450   -0.9110 ca        1 MOL     -0.178436
    123 C43        11.1530   -0.9590   -2.5040 ca        1 MOL     -0.178436
    124 C44        11.7150   -1.8500   -1.5920 ca        1 MOL     -0.049074
    125 H51         4.7360   -2.1670   -2.6050 hn        1 MOL      0.343009
    126 H52         6.5760   -1.8920   -0.4440 h1        1 MOL      0.095745
    127 H53         7.2260   -1.4460   -3.3680 hc        1 MOL      0.103294
    128 H54         7.2090   -2.9760   -2.7810 hc        1 MOL      0.103294
    129 H55         8.9380   -3.5090   -0.5950 ha        1 MOL      0.102561
    130 H56         9.3980   -0.2410   -3.4230 ha        1 MOL      0.102561
    131 H57        11.2590   -3.3940   -0.1290 ha        1 MOL      0.126043
    132 H58        11.8040   -0.2880   -3.0420 ha        1 MOL      0.126043
    133 H59        12.7940   -1.7890   -1.5790 ha        1 MOL      0.086259
    134 N12         6.0240    1.0680   -1.7700 n         1 MOL      0.045913
    135 C45         6.1450    2.4760   -1.4250 c3        1 MOL      0.046175
    136 C46         5.6210    2.8550   -0.0370 c         1 MOL      0.190858
    137 O20         6.0480    3.8340    0.6130 o         1 MOL     -0.497242
    138 C47         5.2300    3.2510   -2.3970 c3        1 MOL     -0.051072
    139 C48         5.3420    2.3870   -3.6060 c3        1 MOL     -0.030519
    140 C49         5.2290    0.9900   -3.0070 c3        1 MOL     -0.083649
    141 H60         7.1850    2.7680   -1.4330 h1        1 MOL      0.069753
    142 H61         4.1930    3.2610   -2.0720 hc        1 MOL      0.054548
    143 H62         5.7140    4.1950   -2.6380 hc        1 MOL      0.054548
    144 H63         4.5430    2.6370   -4.2920 hc        1 MOL      0.029371
    145 H64         6.3430    2.4700   -4.0400 hc        1 MOL      0.029371
    146 H65         4.2270    0.7320   -2.6850 h1        1 MOL      0.043747
    147 H66         5.6440    0.2310   -3.6590 h1        1 MOL      0.043747
    148 N13         4.6600    2.0940    0.4590 n         1 MOL     -0.020210
    149 C50         4.0700    2.0690    1.7500 c3        1 MOL      0.041505
    150 C51         4.8520    1.1990    2.7580 c         1 MOL      0.442479
    151 O21         4.7350    1.4310    3.9530 o         1 MOL     -0.578798
    152 C52         2.6650    1.5440    1.7520 c3        1 MOL     -0.007495
    153 C53         1.8400    2.1000    0.6040 c3        1 MOL     -0.541891
    154 C54         0.4980    1.4230    0.4770 c         1 MOL      1.007471
    155 O22        -0.3730    1.9350   -0.1620 o         1 MOL     -0.836745
    156 O23         0.2620    0.2880    0.9480 o         1 MOL     -0.836745
    157 H67         4.2150    1.3920   -0.1070 hn        1 MOL      0.167567
    158 H68         4.0610    3.0410    2.2520 h1        1 MOL      0.042188
    159 H69         2.2820    1.7480    2.7470 hc        1 MOL      0.069255
    160 H70         2.8670    0.4830    1.6390 hc        1 MOL      0.069255
    161 H71         2.2900    1.9010   -0.3670 hc        1 MOL      0.160955
    162 H72         1.8170    3.1520    0.8530 hc        1 MOL      0.160955
    163 N14         5.6100    0.2150    2.2590 n         1 MOL     -0.063996
    164 C55         6.6850   -0.4420    3.0530 c3        1 MOL     -0.065554
    165 H73         7.0650    0.2570    3.7980 h1        1 MOL      0.041254
    166 H74         6.2800   -1.3210    3.5540 h1        1 MOL      0.041254
    167 H75         7.4960   -0.7410    2.3890 h1        1 MOL      0.041254
    168 H76         5.5210    0.1460    1.2590 hn        1 MOL      0.021540
    169 Ca1        -2.0460   -0.1190   -0.1880 Ca        1 MOL      1.720206
    170 O24        -4.8480   -0.4150    1.2600 oh        1 MOL     -0.772114
    171 H77        -4.9220    0.5420    1.2860 ho        1 MOL      0.377489
    172 H78        -4.9950   -0.6820    2.1680 ho        1 MOL      0.377489
    173 O25        -1.6870    0.2100    2.8540 oh        1 MOL     -0.772114
    174 H79        -1.7990    0.5890    3.7270 ho        1 MOL      0.377489
    175 H80        -0.7380    0.2210    2.7120 ho        1 MOL      0.377489
@<TRIPOS>BOND
     1    1    2 1   
     2    1    4 1   
     3    1    5 1   
     4    1    6 1   
     5    2    3 2   
     6    2    7 1   
     7    7    8 1   
     8    7   15 1   
     9    8    9 1   
    10    8   11 1   
    11    8   16 1   
    12    9   10 2   
    13    9   19 1   
    14   11   12 1   
    15   11   17 1   
    16   11   18 1   
    17   12   13 1   
    18   12   14 1   
    19   19   20 1   
    20   19   24 1   
    21   20   21 1   
    22   20   23 1   
    23   20   25 1   
    24   21   22 2   
    25   21   29 1   
    26   23   26 1   
    27   23   27 1   
    28   23   28 1   
    29   29   30 1   
    30   29   37 1   
    31   30   31 1   
    32   30   33 1   
    33   30   38 1   
    34   31   32 2   
    35   31   41 1   
    36   33   34 1   
    37   33   39 1   
    38   33   40 1   
    39   34   35 1   
    40   34   36 1   
    41   41   42 1   
    42   41   45 1   
    43   42   43 1   
    44   42   46 1   
    45   42   47 1   
    46   43   44 2   
    47   43   48 1   
    48   48   49 1   
    49   48   56 1   
    50   49   50 1   
    51   49   52 1   
    52   49   57 1   
    53   50   51 2   
    54   50   62 1   
    55   52   53 1   
    56   52   58 1   
    57   52   59 1   
    58   53   54 1   
    59   53   55 2   
    60   54   60 1   
    61   54   61 1   
    62   62   63 1   
    63   62   66 1   
    64   63   64 1   
    65   63   67 1   
    66   63   68 1   
    67   64   65 2   
    68   64   69 1   
    69   69   70 1   
    70   69   76 1   
    71   70   71 1   
    72   70   73 1   
    73   70   77 1   
    74   71   72 2   
    75   71   83 1   
    76   73   74 1   
    77   73   75 1   
    78   73   78 1   
    79   74   80 1   
    80   74   81 1   
    81   74   82 1   
    82   75   79 1   
    83   83   84 1   
    84   83   91 1   
    85   84   85 1   
    86   84   87 1   
    87   84   92 1   
    88   85   86 2   
    89   85  102 1   
    90   87   88 1   
    91   87   89 1   
    92   87   93 1   
    93   88   90 1   
    94   88   94 1   
    95   88   95 1   
    96   89   96 1   
    97   89   97 1   
    98   89   98 1   
    99   90   99 1   
   100   90  100 1   
   101   90  101 1   
   102  102  103 1   
   103  102  110 1   
   104  103  104 1   
   105  103  106 1   
   106  103  111 1   
   107  104  105 2   
   108  104  114 1   
   109  106  107 1   
   110  106  112 1   
   111  106  113 1   
   112  107  108 1   
   113  107  109 1   
   114  114  115 1   
   115  114  125 1   
   116  115  116 1   
   117  115  118 1   
   118  115  126 1   
   119  116  117 2   
   120  116  134 1   
   121  118  119 1   
   122  118  127 1   
   123  118  128 1   
   124  119  120 ar  
   125  119  121 ar  
   126  120  122 ar  
   127  120  129 1   
   128  121  123 ar  
   129  121  130 1   
   130  122  124 ar  
   131  122  131 1   
   132  123  124 ar  
   133  123  132 1   
   134  124  133 1   
   135  134  135 1   
   136  134  140 1   
   137  135  136 1   
   138  135  138 1   
   139  135  141 1   
   140  136  137 2   
   141  136  148 1   
   142  138  139 1   
   143  138  142 1   
   144  138  143 1   
   145  139  140 1   
   146  139  144 1   
   147  139  145 1   
   148  140  146 1   
   149  140  147 1   
   150  148  149 1   
   151  148  157 1   
   152  149  150 1   
   153  149  152 1   
   154  149  158 1   
   155  150  151 2   
   156  150  163 1   
   157  152  153 1   
   158  152  159 1   
   159  152  160 1   
   160  153  154 1   
   161  153  161 1   
   162  153  162 1   
   163  154  155 1   
   164  154  156 1   
   165  163  164 1   
   166  163  168 1   
   167  164  165 1   
   168  164  166 1   
   169  164  167 1   
   170  170  171 1   
   171  170  172 1   
   172  173  174 1   
   173  173  175 1   
@<TRIPOS>SUBSTRUCTURE
     1 MOL         1 TEMP              0 ****  ****    0 ROOT
