@<TRIPOS>MOLECULE
MOL
  172   171     1     0     0
SMALL
resp


@<TRIPOS>ATOM
      1 C1         -0.1360    2.7650    5.6390 c3        1 MOL     -0.308570
      2 C2         -0.6180    2.6290    4.1810 c         1 MOL      0.787413
      3 O1         -0.0290    3.2220    3.3140 o         1 MOL     -0.620102
      4 H1          0.5240    3.6280    5.7240 hc        1 MOL      0.070018
      5 H2         -0.9960    2.9000    6.2940 hc        1 MOL      0.070018
      6 H3          0.4040    1.8640    5.9290 hc        1 MOL      0.070018
      7 N1         -1.6690    1.8430    3.8940 n         1 MOL     -0.658507
      8 C3         -2.1980    1.6430    2.5940 c3        1 MOL      0.340123
      9 C4         -2.7080    2.9510    2.0500 c         1 MOL      0.353459
     10 O2         -3.8730    3.3120    2.2200 o         1 MOL     -0.541988
     11 C5         -3.3760    0.7230    2.6220 c3        1 MOL     -0.156476
     12 C6         -4.0720    0.5920    1.2570 c         1 MOL      0.265051
     13 O3         -3.3830    0.8020    0.2110 o         1 MOL     -0.485243
     14 O4         -5.3050    0.3610    1.2410 o         1 MOL     -0.485243
     15 H4         -2.0850    1.1850    4.5310 hn        1 MOL      0.294706
     16 H5         -1.5050    1.2200    1.8610 h1        1 MOL     -0.025057
     17 H6         -4.1010    1.0100    3.3920 hc        1 MOL      0.048603
     18 H7         -3.0400   -0.2450    2.9960 hc        1 MOL      0.048603
     19 N2         -1.9590    3.6990    1.2420 n         1 MOL     -0.194559
     20 C7         -2.2180    4.9990    0.6580 c3        1 MOL      0.031071
     21 C8         -3.3170    4.8330   -0.4980 c         1 MOL      0.407543
     22 O5         -3.9810    5.8560   -0.7870 o         1 MOL     -0.564820
     23 C9         -0.8770    5.6860    0.1340 c3        1 MOL     -0.171182
     24 H8         -1.0560    3.2820    1.0490 hn        1 MOL      0.271824
     25 H9         -2.5780    5.6350    1.4640 h1        1 MOL      0.069674
     26 H10        -1.0940    6.7240   -0.1090 hc        1 MOL      0.058899
     27 H11        -0.0720    5.8080    0.8540 hc        1 MOL      0.058899
     28 H12        -0.4940    5.1740   -0.7470 hc        1 MOL      0.058899
     29 N3         -3.6700    3.6000   -0.9560 n         1 MOL     -0.019084
     30 C10        -4.6120    3.4260   -2.0850 c3        1 MOL     -0.142572
     31 C11        -6.0200    3.0450   -1.6280 c         1 MOL      0.404079
     32 O6         -6.9100    3.0690   -2.5000 o         1 MOL     -0.581687
     33 C12        -4.1650    2.2100   -2.9850 c3        1 MOL     -0.125403
     34 C13        -2.7100    2.3680   -3.4690 c         1 MOL      0.717431
     35 O7         -2.0630    1.3160   -3.4030 o         1 MOL     -0.707821
     36 O8         -2.2980    3.3530   -4.0860 o         1 MOL     -0.707821
     37 H13        -3.3570    2.7650   -0.4660 hn        1 MOL     -0.022589
     38 H14        -4.7410    4.3650   -2.6170 h1        1 MOL      0.134596
     39 H15        -4.8020    2.1640   -3.8700 hc        1 MOL      0.036490
     40 H16        -4.4160    1.2680   -2.4710 hc        1 MOL      0.036490
     41 N4         -6.2840    2.6650   -0.4340 n         1 MOL     -0.173901
     42 C14        -7.5710    2.0950    0.0440 c3        1 MOL     -0.264994
     43 C15        -7.7950    0.7250   -0.6010 c         1 MOL      0.584469
     44 O9         -8.8860    0.2110   -0.5290 o         1 MOL     -0.602700
     45 H17        -5.4950    2.7230    0.1900 hn        1 MOL      0.219290
     46 H18        -8.3650    2.8030   -0.1920 h1        1 MOL      0.129385
     47 H19        -7.4850    2.0000    1.1230 h1        1 MOL      0.129385
     48 N5         -6.8160    0.1580   -1.2830 n         1 MOL     -0.307140
     49 C16        -7.0150   -1.1660   -1.8850 c3        1 MOL     -0.046435
     50 C17        -6.9760   -2.2750   -0.8120 c         1 MOL      0.436458
     51 O10        -7.2750   -3.3980   -1.1430 o         1 MOL     -0.578449
     52 C18        -5.9500   -1.2430   -3.0240 c3        1 MOL     -0.240008
     53 C19        -4.7210   -1.8640   -2.5330 c         1 MOL      0.672661
     54 N6         -4.5990   -3.1580   -2.6390 n         1 MOL     -0.747167
     55 O11        -3.8960   -1.1710   -1.9340 o         1 MOL     -0.626305
     56 H20        -5.8820    0.5190   -1.2260 hn        1 MOL      0.346428
     57 H21        -8.0400   -1.2680   -2.2620 h1        1 MOL      0.127441
     58 H22        -5.6320   -0.2920   -3.4460 hc        1 MOL      0.081316
     59 H23        -6.3140   -1.7880   -3.8910 hc        1 MOL      0.081316
     60 H24        -5.1590   -3.7290   -3.2720 hn        1 MOL      0.342690
     61 H25        -3.7750   -3.5530   -2.2040 hn        1 MOL      0.342690
     62 N7         -6.7230   -1.9750    0.4370 n         1 MOL     -0.050444
     63 C20        -6.7430   -3.0400    1.4210 c3        1 MOL     -0.246242
     64 C21        -5.3930   -3.6590    1.7130 c         1 MOL      0.569315
     65 O12        -5.3430   -4.5240    2.6010 o         1 MOL     -0.603669
     66 H26        -6.4730   -1.0200    0.6360 hn        1 MOL      0.120059
     67 H27        -7.4360   -3.8520    1.1620 h1        1 MOL      0.119660
     68 H28        -7.0780   -2.6340    2.3740 h1        1 MOL      0.119660
     69 N8         -4.3080   -3.3940    1.0190 n         1 MOL     -0.230675
     70 C22        -2.9260   -4.0290    1.3040 c3        1 MOL     -0.046092
     71 C23        -1.7330   -3.0270    1.2810 c         1 MOL      0.549286
     72 O13        -1.7980   -1.9460    0.7140 o         1 MOL     -0.512399
     73 C24        -2.6420   -5.1540    0.2710 c3        1 MOL      0.211557
     74 C25        -3.8080   -6.1330    0.1710 c3        1 MOL     -0.424364
     75 O14        -2.6920   -4.5730   -1.0250 oh        1 MOL     -0.486893
     76 H29        -4.4510   -2.8670    0.1740 hn        1 MOL      0.229283
     77 H30        -2.8800   -4.4500    2.3090 h1        1 MOL      0.097413
     78 H31        -1.7040   -5.7160    0.2970 h1        1 MOL      0.056613
     79 H32        -2.4960   -5.2770   -1.6520 ho        1 MOL      0.352326
     80 H33        -4.6640   -5.7570   -0.3940 hc        1 MOL      0.112638
     81 H34        -3.4820   -7.0560   -0.3050 hc        1 MOL      0.112638
     82 H35        -4.0870   -6.2990    1.2110 hc        1 MOL      0.112638
     83 N9         -0.6280   -3.3550    1.8990 n         1 MOL     -0.527551
     84 C26         0.6100   -2.5120    1.9230 c3        1 MOL      0.098638
     85 C27         1.5190   -2.9810    0.8130 c         1 MOL      0.543311
     86 O15         1.8270   -4.1920    0.7100 o         1 MOL     -0.585049
     87 C28         1.3160   -2.5770    3.3180 c3        1 MOL     -0.082454
     88 C29         0.4170   -1.8570    4.3350 c3        1 MOL      0.168566
     89 C30         2.6150   -1.8300    3.3300 c3        1 MOL     -0.004169
     90 C31         1.0290   -1.8980    5.7980 c3        1 MOL     -0.176553
     91 H36        -0.5320   -4.2620    2.3480 hn        1 MOL      0.277746
     92 H37         0.2990   -1.4960    1.6930 h1        1 MOL      0.100855
     93 H38         1.3820   -3.6400    3.5290 hc        1 MOL      0.035142
     94 H39        -0.5450   -2.3480    4.4930 hc        1 MOL     -0.029419
     95 H40         0.1040   -0.8850    3.9520 hc        1 MOL     -0.029419
     96 H41         2.4860   -0.7620    3.2430 hc        1 MOL     -0.007310
     97 H42         3.1810   -1.9780    4.2470 hc        1 MOL     -0.007310
     98 H43         3.2800   -2.2250    2.5550 hc        1 MOL     -0.007310
     99 H44         1.2170   -2.8940    6.1820 hc        1 MOL      0.033200
    100 H45         1.9560   -1.3250    5.8770 hc        1 MOL      0.033200
    101 H46         0.2730   -1.4790    6.4640 hc        1 MOL      0.033200
    102 N10         1.8440   -2.0760   -0.1160 n         1 MOL     -0.303108
    103 C32         2.9910   -2.2360   -0.9750 c3        1 MOL      0.104796
    104 C33         4.3670   -1.7280   -0.3580 c         1 MOL      0.361914
    105 O16         4.5050   -0.9820    0.6260 o         1 MOL     -0.298975
    106 C34         2.7890   -1.3570   -2.2960 c3        1 MOL     -0.255286
    107 C35         1.3810   -1.3460   -2.9910 c         1 MOL      0.782050
    108 O17         0.6360   -0.3240   -2.7950 o         1 MOL     -0.708757
    109 O18         1.0560   -2.3090   -3.6660 o         1 MOL     -0.708757
    110 H47         1.5090   -1.1400    0.0580 hn        1 MOL      0.142173
    111 H48         3.1020   -3.2910   -1.2020 h1        1 MOL      0.051611
    112 H49         3.4480   -1.6780   -3.1030 hc        1 MOL      0.068768
    113 H50         3.0240   -0.3550   -1.9210 hc        1 MOL      0.068768
    114 N11         5.4210   -1.9280   -1.1140 n         1 MOL     -0.517167
    115 C36         6.7580   -1.4800   -0.6570 c3        1 MOL      0.225381
    116 C37         6.9710    0.0110   -0.4960 c         1 MOL      0.413191
    117 O19         7.4060    0.4040    0.5420 o         1 MOL     -0.486322
    118 C38         7.7570   -2.2440   -1.5080 c3        1 MOL     -0.090544
    119 C39         9.1910   -1.8730   -1.4850 ca        1 MOL     -0.016069
    120 C40         9.8850   -2.0950   -0.3060 ca        1 MOL     -0.112085
    121 C41         9.8150   -1.2430   -2.6000 ca        1 MOL     -0.112085
    122 C42        11.2850   -1.9370   -0.2710 ca        1 MOL     -0.105249
    123 C43        11.2050   -0.8870   -2.4940 ca        1 MOL     -0.105249
    124 C44        11.9210   -1.2830   -1.3410 ca        1 MOL     -0.138566
    125 H51         5.4460   -2.4620   -1.9690 hn        1 MOL      0.292677
    126 H52         6.9120   -1.8860    0.3440 h1        1 MOL      0.049410
    127 H53         7.3820   -2.2320   -2.5350 hc        1 MOL      0.041680
    128 H54         7.6210   -3.3090   -1.3060 hc        1 MOL      0.041680
    129 H55         9.4310   -2.5450    0.5600 ha        1 MOL      0.107827
    130 H56         9.2740   -1.1880   -3.5270 ha        1 MOL      0.107827
    131 H57        11.8600   -2.2440    0.5950 ha        1 MOL      0.109699
    132 H58        11.6660   -0.3710   -3.3300 ha        1 MOL      0.109699
    133 H59        12.9650   -1.0180   -1.2630 ha        1 MOL      0.108358
    134 N12         6.6030    0.9040   -1.4440 n         1 MOL     -0.093740
    135 C45         6.6010    2.3970   -1.2920 c3        1 MOL     -0.075682
    136 C46         5.7830    2.9210   -0.1570 c         1 MOL      0.309019
    137 O20         6.2010    3.9210    0.4790 o         1 MOL     -0.501822
    138 C47         6.1350    2.9670   -2.6860 c3        1 MOL      0.018441
    139 C48         6.5200    1.8980   -3.6830 c3        1 MOL     -0.163711
    140 C49         6.2050    0.6550   -2.8230 c3        1 MOL     -0.087615
    141 H60         7.6260    2.6760   -1.0530 h1        1 MOL      0.102500
    142 H61         5.0540    3.0690   -2.7920 hc        1 MOL      0.051684
    143 H62         6.5690    3.9350   -2.9480 hc        1 MOL      0.051684
    144 H63         5.8650    1.9980   -4.5560 hc        1 MOL      0.066666
    145 H64         7.5680    2.0250   -3.9450 hc        1 MOL      0.066666
    146 H65         5.1620    0.3620   -2.9480 h1        1 MOL      0.052992
    147 H66         6.6560   -0.2320   -3.2740 h1        1 MOL      0.052992
    148 N13         4.7090    2.2760    0.2400 n         1 MOL     -0.244037
    149 C50         4.0050    2.5770    1.5120 c3        1 MOL     -0.009915
    150 C51         4.6370    1.9970    2.7900 c         1 MOL      0.464594
    151 O21         4.8020    2.7270    3.7890 o         1 MOL     -0.574328
    152 C52         2.5990    1.9930    1.3130 c3        1 MOL     -0.014852
    153 C53         1.9490    2.2920   -0.0300 c3        1 MOL      0.047471
    154 C54         0.5430    1.6820   -0.1750 c         1 MOL      0.463110
    155 O22         0.2740    0.5850    0.3550 o         1 MOL     -0.654703
    156 O23        -0.3170    2.2480   -0.8840 o         1 MOL     -0.654703
    157 H67         4.2890    1.5000   -0.2590 hn        1 MOL      0.255106
    158 H68         3.9610    3.6650    1.6210 h1        1 MOL      0.084641
    159 H69         2.0060    2.5290    2.0640 hc        1 MOL      0.025095
    160 H70         2.6370    0.9480    1.6100 hc        1 MOL      0.025095
    161 H71         2.5530    2.0110   -0.8840 hc        1 MOL      0.012609
    162 H72         1.8730    3.3780   -0.1420 hc        1 MOL      0.012609
    163 N14         5.1370    0.7490    2.8220 n         1 MOL      0.004938
    164 C55         5.9130    0.1550    3.8830 c3        1 MOL     -0.241829
    165 H73         6.4890    0.9300    4.3890 h1        1 MOL      0.083496
    166 H74         5.2440   -0.3250    4.5970 h1        1 MOL      0.083496
    167 H75         6.5930   -0.5870    3.4640 h1        1 MOL      0.083496
    168 H76         4.9950    0.1350    2.0320 hn        1 MOL      0.035050
    169 Ca1        -1.5010   -0.1560   -1.3580 Ca        1 MOL      1.713782
    170 O24        -1.3140   -2.5780   -2.4190 oh        1 MOL     -1.001715
    171 H77        -1.6430   -3.4590   -2.5810 ho        1 MOL      0.435444
    172 H78        -0.5280   -2.5150   -2.9500 ho        1 MOL      0.435444
@<TRIPOS>BOND
     1    1    2 1   
     2    1    4 1   
     3    1    5 1   
     4    1    6 1   
     5    2    3 2   
     6    2    7 1   
     7    7    8 1   
     8    7   15 1   
     9    8    9 1   
    10    8   11 1   
    11    8   16 1   
    12    9   10 2   
    13    9   19 1   
    14   11   12 1   
    15   11   17 1   
    16   11   18 1   
    17   12   13 1   
    18   12   14 1   
    19   19   20 1   
    20   19   24 1   
    21   20   21 1   
    22   20   23 1   
    23   20   25 1   
    24   21   22 2   
    25   21   29 1   
    26   23   26 1   
    27   23   27 1   
    28   23   28 1   
    29   29   30 1   
    30   29   37 1   
    31   30   31 1   
    32   30   33 1   
    33   30   38 1   
    34   31   32 2   
    35   31   41 1   
    36   33   34 1   
    37   33   39 1   
    38   33   40 1   
    39   34   35 1   
    40   34   36 1   
    41   41   42 1   
    42   41   45 1   
    43   42   43 1   
    44   42   46 1   
    45   42   47 1   
    46   43   44 2   
    47   43   48 1   
    48   48   49 1   
    49   48   56 1   
    50   49   50 1   
    51   49   52 1   
    52   49   57 1   
    53   50   51 2   
    54   50   62 1   
    55   52   53 1   
    56   52   58 1   
    57   52   59 1   
    58   53   54 1   
    59   53   55 2   
    60   54   60 1   
    61   54   61 1   
    62   62   63 1   
    63   62   66 1   
    64   63   64 1   
    65   63   67 1   
    66   63   68 1   
    67   64   65 2   
    68   64   69 1   
    69   69   70 1   
    70   69   76 1   
    71   70   71 1   
    72   70   73 1   
    73   70   77 1   
    74   71   72 2   
    75   71   83 1   
    76   73   74 1   
    77   73   75 1   
    78   73   78 1   
    79   74   80 1   
    80   74   81 1   
    81   74   82 1   
    82   75   79 1   
    83   83   84 1   
    84   83   91 1   
    85   84   85 1   
    86   84   87 1   
    87   84   92 1   
    88   85   86 2   
    89   85  102 1   
    90   87   88 1   
    91   87   89 1   
    92   87   93 1   
    93   88   90 1   
    94   88   94 1   
    95   88   95 1   
    96   89   96 1   
    97   89   97 1   
    98   89   98 1   
    99   90   99 1   
   100   90  100 1   
   101   90  101 1   
   102  102  103 1   
   103  102  110 1   
   104  103  104 1   
   105  103  106 1   
   106  103  111 1   
   107  104  105 2   
   108  104  114 1   
   109  106  107 1   
   110  106  112 1   
   111  106  113 1   
   112  107  108 1   
   113  107  109 1   
   114  114  115 1   
   115  114  125 1   
   116  115  116 1   
   117  115  118 1   
   118  115  126 1   
   119  116  117 2   
   120  116  134 1   
   121  118  119 1   
   122  118  127 1   
   123  118  128 1   
   124  119  120 ar  
   125  119  121 ar  
   126  120  122 ar  
   127  120  129 1   
   128  121  123 ar  
   129  121  130 1   
   130  122  124 ar  
   131  122  131 1   
   132  123  124 ar  
   133  123  132 1   
   134  124  133 1   
   135  134  135 1   
   136  134  140 1   
   137  135  136 1   
   138  135  138 1   
   139  135  141 1   
   140  136  137 2   
   141  136  148 1   
   142  138  139 1   
   143  138  142 1   
   144  138  143 1   
   145  139  140 1   
   146  139  144 1   
   147  139  145 1   
   148  140  146 1   
   149  140  147 1   
   150  148  149 1   
   151  148  157 1   
   152  149  150 1   
   153  149  152 1   
   154  149  158 1   
   155  150  151 2   
   156  150  163 1   
   157  152  153 1   
   158  152  159 1   
   159  152  160 1   
   160  153  154 1   
   161  153  161 1   
   162  153  162 1   
   163  154  155 1   
   164  154  156 1   
   165  163  164 1   
   166  163  168 1   
   167  164  165 1   
   168  164  166 1   
   169  164  167 1   
   170  170  171 1   
   171  170  172 1   
@<TRIPOS>SUBSTRUCTURE
     1 MOL         1 TEMP              0 ****  ****    0 ROOT
