@<TRIPOS>MOLECULE
MOL
  189   185     1     0     0
SMALL
resp


@<TRIPOS>ATOM
      1 C1         -0.0750    0.5950    6.1190 c3        1 MOL     -0.142591
      2 C2         -0.4900    0.6950    4.6170 c         1 MOL      0.553978
      3 O1          0.3980    0.7730    3.7150 o         1 MOL     -0.557628
      4 H1          0.8370    0.0030    6.2040 hc        1 MOL      0.040040
      5 H2          0.1040    1.5950    6.5140 hc        1 MOL      0.040040
      6 H3         -0.8730    0.1150    6.6860 hc        1 MOL      0.040040
      7 N1         -1.7420    0.9230    4.3040 n         1 MOL     -0.553922
      8 C3         -2.1430    1.0480    2.8850 c3        1 MOL      0.178391
      9 C4         -2.2810    2.5440    2.6430 c         1 MOL      0.208430
     10 O2         -3.1150    3.2180    3.2170 o         1 MOL     -0.473866
     11 C5         -3.4720    0.2990    2.6030 c3        1 MOL     -0.188468
     12 C6         -4.0620    0.4700    1.2130 c         1 MOL      1.058122
     13 O3         -3.3830    0.9190    0.3030 o         1 MOL     -0.823828
     14 O4         -5.1440   -0.0380    1.0010 o         1 MOL     -0.823828
     15 H4         -2.4140    1.2190    4.9900 hn        1 MOL      0.350100
     16 H5         -1.3650    0.6910    2.2050 h1        1 MOL      0.082602
     17 H6         -4.1620    0.7040    3.3450 hc        1 MOL      0.020039
     18 H7         -3.3100   -0.7640    2.8040 hc        1 MOL      0.020039
     19 N2         -1.2830    3.1160    1.9060 n         1 MOL     -0.423385
     20 C7         -1.0530    4.5610    1.6470 c3        1 MOL      0.116656
     21 C8         -1.8740    5.1740    0.5270 c         1 MOL      0.434839
     22 O5         -2.1630    6.3800    0.6090 o         1 MOL     -0.578647
     23 C9          0.4860    4.6250    1.3030 c3        1 MOL     -0.141934
     24 C10         1.4250    4.2520    2.5120 c3        1 MOL      0.249582
     25 C11         1.2490    5.0670    3.8360 c3        1 MOL     -0.100455
     26 C12         0.2970    4.3820    4.8320 c3        1 MOL      0.068755
     27 N3          0.2160    5.1830    6.0890 n4        1 MOL     -0.524340
     28 H8         -0.8370    2.4760    1.2600 hn        1 MOL      0.426849
     29 H9         -1.1330    5.2250    2.5150 h1        1 MOL      0.025757
     30 H10         0.7520    5.6150    0.9360 hc        1 MOL      0.025099
     31 H11         0.6180    3.8740    0.5340 hc        1 MOL      0.025099
     32 H12         2.4640    4.3290    2.2070 hc        1 MOL     -0.030439
     33 H13         1.4230    3.1880    2.7440 hc        1 MOL     -0.030439
     34 H14         0.9570    6.0470    3.4580 hc        1 MOL      0.025709
     35 H15         2.2470    5.1610    4.2520 hc        1 MOL      0.025709
     36 H16         0.7660    3.4460    5.0990 hx        1 MOL      0.115018
     37 H17        -0.6900    4.3370    4.3870 hx        1 MOL      0.115018
     38 H18        -0.1010    6.1240    5.8910 hn        1 MOL      0.361599
     39 H19        -0.4150    4.6850    6.7030 hn        1 MOL      0.361599
     40 H20         1.1540    5.2840    6.4520 hn        1 MOL      0.361599
     41 N4         -2.2470    4.4080   -0.4560 n         1 MOL     -0.223014
     42 C13        -3.0670    4.8830   -1.6860 c3        1 MOL      0.036361
     43 C14        -4.5320    4.3540   -1.6340 c         1 MOL      0.519991
     44 O6         -5.3020    4.8820   -2.4610 o         1 MOL     -0.535261
     45 C15        -2.3420    4.4810   -3.0120 c3        1 MOL     -0.196509
     46 C16        -1.8650    3.0210   -3.2710 c         1 MOL      0.809281
     47 O7         -1.2120    2.8290   -4.2880 o         1 MOL     -0.710819
     48 O8         -2.2700    2.0470   -2.5830 o         1 MOL     -0.710819
     49 H21        -1.7450    3.5400   -0.5570 hn        1 MOL      0.158782
     50 H22        -3.1850    5.9650   -1.6240 h1        1 MOL      0.073121
     51 H23        -1.4850    5.1530   -3.1080 hc        1 MOL      0.044277
     52 H24        -3.0540    4.7440   -3.7980 hc        1 MOL      0.044277
     53 N5         -4.8520    3.4820   -0.6760 n         1 MOL     -0.323455
     54 C17        -6.2250    3.0030   -0.5330 c3        1 MOL     -0.275912
     55 C18        -6.6140    2.0470   -1.6850 c         1 MOL      0.610237
     56 O9         -7.0600    2.4700   -2.7470 o         1 MOL     -0.524040
     57 H25        -4.0830    3.0890   -0.1540 hn        1 MOL      0.299183
     58 H26        -6.8920    3.8560   -0.6020 h1        1 MOL      0.118457
     59 H27        -6.3960    2.5800    0.4510 h1        1 MOL      0.118457
     60 N6         -6.4080    0.7570   -1.4470 n         1 MOL     -0.389420
     61 C19        -6.9940   -0.3760   -2.2570 c3        1 MOL      0.050340
     62 C20        -7.4110   -1.6290   -1.4280 c         1 MOL      0.408562
     63 O10        -8.3700   -2.3400   -1.9370 o         1 MOL     -0.541719
     64 C21        -5.9960   -0.9290   -3.2840 c3        1 MOL     -0.098291
     65 C22        -4.5560   -1.0490   -2.7720 c         1 MOL      0.674505
     66 O11        -4.3070   -1.5790   -1.6670 o         1 MOL     -0.681393
     67 O12        -3.6180   -0.6290   -3.4830 o         1 MOL     -0.681393
     68 H28        -5.9840    0.5420   -0.5600 hn        1 MOL      0.148477
     69 H29        -7.9480   -0.0810   -2.7050 h1        1 MOL      0.073329
     70 H30        -5.8920   -0.0980   -3.9830 hc        1 MOL      0.045183
     71 H31        -6.3480   -1.7550   -3.9020 hc        1 MOL      0.045183
     72 N7         -6.7870   -1.8950   -0.2410 n         1 MOL     -0.316550
     73 C23        -7.1580   -3.0240    0.5650 c3        1 MOL     -0.044404
     74 C24        -6.0060   -3.9640    0.8570 c         1 MOL      0.525641
     75 O13        -6.2910   -5.0810    1.2840 o         1 MOL     -0.587429
     76 H32        -5.9620   -1.3450   -0.0270 hn        1 MOL      0.408470
     77 H33        -7.9550   -3.5720    0.0820 h1        1 MOL      0.064649
     78 H34        -7.4620   -2.7390    1.5750 h1        1 MOL      0.064649
     79 N8         -4.7950   -3.5850    0.4890 n         1 MOL     -0.238273
     80 C25        -3.5330   -4.4120    0.5240 c3        1 MOL     -0.238947
     81 C26        -2.3500   -3.5010    0.7310 c         1 MOL      0.633939
     82 O14        -2.3390   -2.3650    0.3580 o         1 MOL     -0.605268
     83 C27        -3.3730   -5.1790   -0.8380 c3        1 MOL      0.582110
     84 C28        -4.3160   -6.3810   -0.9670 c3        1 MOL     -0.550731
     85 O15        -3.5040   -4.2480   -1.9480 oh        1 MOL     -0.645956
     86 H35        -4.7280   -2.6980    0.0090 hn        1 MOL      0.100210
     87 H36        -3.6800   -5.1120    1.3440 h1        1 MOL      0.116051
     88 H37        -2.4080   -5.6870   -0.8460 h1        1 MOL     -0.060832
     89 H38        -3.5370   -3.3550   -1.5970 ho        1 MOL      0.413988
     90 H39        -5.3670   -6.1280   -1.1130 hc        1 MOL      0.147323
     91 H40        -4.0370   -6.9570   -1.8530 hc        1 MOL      0.147323
     92 H41        -4.2250   -6.8740    0.0040 hc        1 MOL      0.147323
     93 N9         -1.2080   -4.0930    1.1600 n         1 MOL     -0.456103
     94 C29         0.0930   -3.3640    1.4010 c3        1 MOL     -0.026538
     95 C30         1.2190   -3.9320    0.4460 c         1 MOL      0.395395
     96 O16         1.1830   -5.0990    0.1190 o         1 MOL     -0.508714
     97 C31         0.5280   -3.6280    2.8470 c3        1 MOL      0.307998
     98 C32        -0.5510   -3.2670    3.9290 c3        1 MOL      0.257946
     99 C33         1.7800   -2.6700    3.1300 c3        1 MOL     -0.946255
    100 C34        -0.4060   -4.1100    5.2010 c3        1 MOL     -0.110501
    101 H42        -1.3030   -5.0590    1.4200 hn        1 MOL      0.249126
    102 H43        -0.0740   -2.2900    1.3020 h1        1 MOL      0.103055
    103 H44         0.8370   -4.6470    3.0780 hc        1 MOL     -0.008804
    104 H45        -1.5290   -3.6650    3.6530 hc        1 MOL     -0.059680
    105 H46        -0.6240   -2.1910    4.1010 hc        1 MOL     -0.059680
    106 H47         1.9260   -2.4540    4.1970 hc        1 MOL      0.215072
    107 H48         2.6680   -3.1390    2.6930 hc        1 MOL      0.215072
    108 H49         1.5680   -1.6320    2.8580 hc        1 MOL      0.215072
    109 H50        -1.1640   -3.9000    5.9560 hc        1 MOL      0.007265
    110 H51        -0.4670   -5.1520    4.8740 hc        1 MOL      0.007265
    111 H52         0.5780   -4.0150    5.6740 hc        1 MOL      0.007265
    112 N10         2.1320   -3.0490   -0.0410 n         1 MOL     -0.166825
    113 C35         3.1870   -3.4790   -0.9970 c3        1 MOL     -0.263977
    114 C36         4.5390   -2.9360   -0.4840 c         1 MOL      0.523822
    115 O17         4.6120   -2.0990    0.4670 o         1 MOL     -0.485988
    116 C37         2.9060   -2.8410   -2.3910 c3        1 MOL      0.306450
    117 C38         1.5870   -3.4430   -2.9460 c3        1 MOL     -0.296823
    118 O18         2.6150   -1.4100   -2.3810 oh        1 MOL     -0.636701
    119 H53         2.0380   -2.0550    0.1120 hn        1 MOL      0.484686
    120 H54         3.2440   -4.5700   -1.0220 h1        1 MOL      0.140529
    121 H55         3.7510   -3.0500   -3.0470 h1        1 MOL      0.006947
    122 H56         1.9550   -1.3110   -1.6840 ho        1 MOL      0.390126
    123 H57         1.2320   -2.9180   -3.8310 hc        1 MOL      0.090449
    124 H58         1.8290   -4.3740   -3.4520 hc        1 MOL      0.090449
    125 H59         0.9200   -3.6380   -2.1090 hc        1 MOL      0.090449
    126 N11         5.6910   -3.2970   -1.1170 n         1 MOL     -0.354995
    127 C39         7.0680   -3.0150   -0.5790 c3        1 MOL      0.004187
    128 C40         7.2090   -1.4560   -0.3580 c         1 MOL      0.252751
    129 O19         7.7170   -1.0070    0.6720 o         1 MOL     -0.472673
    130 C41         8.1730   -3.6380   -1.5640 c3        1 MOL      0.258726
    131 C42         9.6180   -3.2140   -1.3170 c3        1 MOL     -0.519841
    132 O20         8.0930   -5.0750   -1.5870 oh        1 MOL     -0.596180
    133 H60         5.6260   -4.0830   -1.7390 hn        1 MOL      0.270668
    134 H61         7.2440   -3.4490    0.4050 h1        1 MOL      0.137183
    135 H62         7.9430   -3.3350   -2.5840 h1        1 MOL      0.011816
    136 H63         8.9610   -5.3390   -1.9050 ho        1 MOL      0.404066
    137 H64         9.7900   -2.1660   -1.5830 hc        1 MOL      0.153890
    138 H65         9.9680   -3.5910   -0.3560 hc        1 MOL      0.153890
    139 H66        10.3490   -3.7920   -1.8720 hc        1 MOL      0.153890
    140 N12         6.6980   -0.6520   -1.2740 n         1 MOL     -0.056877
    141 C43         6.7490    0.7720   -1.2690 c3        1 MOL     -0.168656
    142 C44         5.9420    1.4430   -0.1720 c         1 MOL      0.429176
    143 O21         6.2310    2.5440    0.3000 o         1 MOL     -0.565561
    144 C45         6.3870    1.3350   -2.6790 c3        1 MOL     -0.037411
    145 C46         6.9580    2.7460   -2.8620 c3        1 MOL      0.017870
    146 C47         6.7970    3.2740   -4.2690 c3        1 MOL     -0.011109
    147 C48         6.9670    4.8180   -4.1700 c3        1 MOL      0.042173
    148 N13         6.8890    5.5540   -5.4440 n4        1 MOL     -0.235726
    149 H67         6.3600   -1.1380   -2.0900 hn        1 MOL      0.150638
    150 H68         7.7710    1.1110   -1.1480 h1        1 MOL      0.127625
    151 H69         5.3280    1.4260   -2.9030 hc        1 MOL      0.044029
    152 H70         6.8080    0.7620   -3.5040 hc        1 MOL      0.044029
    153 H71         8.0330    2.6980   -2.6590 hc        1 MOL      0.022521
    154 H72         6.4140    3.3760   -2.1520 hc        1 MOL      0.022521
    155 H73         5.7920    3.1270   -4.6500 hc        1 MOL      0.026089
    156 H74         7.5820    2.9370   -4.9530 hc        1 MOL      0.026089
    157 H75         7.9140    4.9900   -3.6680 hx        1 MOL      0.074244
    158 H76         6.1400    5.1050   -3.5240 hx        1 MOL      0.074244
    159 H77         6.7490    6.5330   -5.2250 hn        1 MOL      0.295987
    160 H78         7.6490    5.5080   -6.0990 hn        1 MOL      0.295987
    161 H79         6.0860    5.2690   -5.9790 hn        1 MOL      0.295987
    162 N14         4.9610    0.7660    0.3520 n         1 MOL     -0.005348
    163 C49         4.1200    1.1820    1.4930 c3        1 MOL     -0.066315
    164 C50         4.6760    0.7690    2.8490 c         1 MOL      0.469429
    165 O22         4.6630    1.6120    3.7950 o         1 MOL     -0.561110
    166 C51         2.7020    0.6460    1.2260 c3        1 MOL      0.016559
    167 C52         2.0380    1.2680   -0.0030 c3        1 MOL     -0.036046
    168 C53         0.6840    0.6440   -0.2850 c         1 MOL      0.816035
    169 O23        -0.3140    1.3960   -0.1760 o         1 MOL     -0.823603
    170 O24         0.5600   -0.6150   -0.5010 o         1 MOL     -0.823603
    171 H80         4.8010   -0.1850    0.0520 hn        1 MOL      0.073257
    172 H81         3.9990    2.2580    1.5970 h1        1 MOL      0.096698
    173 H82         1.9680    0.6830    2.0310 hc        1 MOL     -0.039785
    174 H83         2.8060   -0.3970    0.9530 hc        1 MOL     -0.039785
    175 H84         2.6570    1.0940   -0.8920 hc        1 MOL     -0.029374
    176 H85         1.8970    2.3230    0.2330 hc        1 MOL     -0.029374
    177 N15         5.3240   -0.3770    2.9640 n         1 MOL     -0.147529
    178 C54         6.0480   -0.7780    4.1480 c3        1 MOL     -0.373655
    179 H86         6.6550   -1.6550    3.9220 h1        1 MOL      0.135581
    180 H87         6.6950    0.0370    4.4720 h1        1 MOL      0.135581
    181 H88         5.3420   -1.0200    4.9420 h1        1 MOL      0.135581
    182 H89         5.4050   -1.0350    2.2050 hn        1 MOL      0.241684
    183 Ca1        -1.9580   -0.2260   -1.4800 Ca        1 MOL      1.762775
    184 O25        -1.3060   -2.4670   -2.8870 oh        1 MOL     -0.823574
    185 H90        -0.9230   -2.4600   -3.7670 ho        1 MOL      0.376053
    186 H91        -1.8710   -3.2480   -2.8700 ho        1 MOL      0.376053
    187 O26        -0.1590    0.5160   -3.5110 oh        1 MOL     -0.823574
    188 H92        -0.5210    1.3100   -3.9110 ho        1 MOL      0.376053
    189 H93         0.7280    0.4550   -3.8730 ho        1 MOL      0.376053
@<TRIPOS>BOND
     1    1    2 1   
     2    1    4 1   
     3    1    5 1   
     4    1    6 1   
     5    2    3 2   
     6    2    7 1   
     7    7    8 1   
     8    7   15 1   
     9    8    9 1   
    10    8   11 1   
    11    8   16 1   
    12    9   10 2   
    13    9   19 1   
    14   11   12 1   
    15   11   17 1   
    16   11   18 1   
    17   12   13 1   
    18   12   14 1   
    19   19   20 1   
    20   19   28 1   
    21   20   21 1   
    22   20   23 1   
    23   20   29 1   
    24   21   22 2   
    25   21   41 1   
    26   23   24 1   
    27   23   30 1   
    28   23   31 1   
    29   24   25 1   
    30   24   32 1   
    31   24   33 1   
    32   25   26 1   
    33   25   34 1   
    34   25   35 1   
    35   26   27 1   
    36   26   36 1   
    37   26   37 1   
    38   27   38 1   
    39   27   39 1   
    40   27   40 1   
    41   41   42 1   
    42   41   49 1   
    43   42   43 1   
    44   42   45 1   
    45   42   50 1   
    46   43   44 2   
    47   43   53 1   
    48   45   46 1   
    49   45   51 1   
    50   45   52 1   
    51   46   47 1   
    52   46   48 1   
    53   53   54 1   
    54   53   57 1   
    55   54   55 1   
    56   54   58 1   
    57   54   59 1   
    58   55   56 2   
    59   55   60 1   
    60   60   61 1   
    61   60   68 1   
    62   61   62 1   
    63   61   64 1   
    64   61   69 1   
    65   62   63 2   
    66   62   72 1   
    67   64   65 1   
    68   64   70 1   
    69   64   71 1   
    70   65   66 1   
    71   65   67 1   
    72   72   73 1   
    73   72   76 1   
    74   73   74 1   
    75   73   77 1   
    76   73   78 1   
    77   74   75 2   
    78   74   79 1   
    79   79   80 1   
    80   79   86 1   
    81   80   81 1   
    82   80   83 1   
    83   80   87 1   
    84   81   82 2   
    85   81   93 1   
    86   83   84 1   
    87   83   85 1   
    88   83   88 1   
    89   84   90 1   
    90   84   91 1   
    91   84   92 1   
    92   85   89 1   
    93   93   94 1   
    94   93  101 1   
    95   94   95 1   
    96   94   97 1   
    97   94  102 1   
    98   95   96 2   
    99   95  112 1   
   100   97   98 1   
   101   97   99 1   
   102   97  103 1   
   103   98  100 1   
   104   98  104 1   
   105   98  105 1   
   106   99  106 1   
   107   99  107 1   
   108   99  108 1   
   109  100  109 1   
   110  100  110 1   
   111  100  111 1   
   112  112  113 1   
   113  112  119 1   
   114  113  114 1   
   115  113  116 1   
   116  113  120 1   
   117  114  115 2   
   118  114  126 1   
   119  116  117 1   
   120  116  118 1   
   121  116  121 1   
   122  117  123 1   
   123  117  124 1   
   124  117  125 1   
   125  118  122 1   
   126  126  127 1   
   127  126  133 1   
   128  127  128 1   
   129  127  130 1   
   130  127  134 1   
   131  128  129 2   
   132  128  140 1   
   133  130  131 1   
   134  130  132 1   
   135  130  135 1   
   136  131  137 1   
   137  131  138 1   
   138  131  139 1   
   139  132  136 1   
   140  140  141 1   
   141  140  149 1   
   142  141  142 1   
   143  141  144 1   
   144  141  150 1   
   145  142  143 2   
   146  142  162 1   
   147  144  145 1   
   148  144  151 1   
   149  144  152 1   
   150  145  146 1   
   151  145  153 1   
   152  145  154 1   
   153  146  147 1   
   154  146  155 1   
   155  146  156 1   
   156  147  148 1   
   157  147  157 1   
   158  147  158 1   
   159  148  159 1   
   160  148  160 1   
   161  148  161 1   
   162  162  163 1   
   163  162  171 1   
   164  163  164 1   
   165  163  166 1   
   166  163  172 1   
   167  164  165 2   
   168  164  177 1   
   169  166  167 1   
   170  166  173 1   
   171  166  174 1   
   172  167  168 1   
   173  167  175 1   
   174  167  176 1   
   175  168  169 1   
   176  168  170 1   
   177  177  178 1   
   178  177  182 1   
   179  178  179 1   
   180  178  180 1   
   181  178  181 1   
   182  184  185 1   
   183  184  186 1   
   184  187  188 1   
   185  187  189 1   
@<TRIPOS>SUBSTRUCTURE
     1 MOL         1 TEMP              0 ****  ****    0 ROOT
