@<TRIPOS>MOLECULE
MOL
  189   185     1     0     0
SMALL
resp


@<TRIPOS>ATOM
      1 C1         -0.4980    2.9420    5.5530 c3        1 MOL     -0.400428
      2 C2         -0.7630    2.3350    4.1510 c         1 MOL      0.756901
      3 O1          0.1080    2.4330    3.2370 o         1 MOL     -0.676024
      4 H1          0.3000    2.3850    6.0440 hc        1 MOL      0.104500
      5 H2         -0.2000    3.9850    5.4470 hc        1 MOL      0.104500
      6 H3         -1.4060    2.8820    6.1530 hc        1 MOL      0.104500
      7 N1         -1.8640    1.6170    3.9390 n         1 MOL     -0.635700
      8 C3         -2.5130    1.3700    2.5920 c3        1 MOL      0.135153
      9 C4         -2.8640    2.7440    1.9620 c         1 MOL      0.536926
     10 O2         -3.8910    3.3980    2.3150 o         1 MOL     -0.549449
     11 C5         -3.7620    0.5440    2.8040 c3        1 MOL     -0.290785
     12 C6         -4.4250    0.2680    1.4010 c         1 MOL      0.700750
     13 O3         -5.4670   -0.2990    1.5350 o         1 MOL     -0.602067
     14 O4         -3.8620    0.4970    0.2830 o         1 MOL     -0.602067
     15 H4         -2.5450    1.5800    4.6890 hn        1 MOL      0.338037
     16 H5         -1.9000    0.7340    1.9490 h1        1 MOL      0.029275
     17 H6         -4.4190    1.1010    3.4680 hc        1 MOL      0.073543
     18 H7         -3.5650   -0.4420    3.2150 hc        1 MOL      0.073543
     19 N2         -1.9060    3.2550    1.1470 n         1 MOL     -0.547448
     20 C7         -1.8070    4.6230    0.6230 c3        1 MOL     -0.007222
     21 C8         -2.7460    4.8840   -0.5470 c         1 MOL      0.539147
     22 O5         -2.9990    6.0740   -0.8270 o         1 MOL     -0.583000
     23 C9         -0.2680    4.9790    0.3950 c3        1 MOL     -0.060607
     24 C10        -0.1090    6.4260   -0.0650 c3        1 MOL      0.027957
     25 C11        -0.5540    7.4430    1.0050 c3        1 MOL     -0.002560
     26 C12        -0.3130    8.8540    0.5100 c3        1 MOL     -0.066048
     27 N3          1.0750    9.3490    0.9580 n4        1 MOL     -0.436628
     28 H8         -1.1000    2.7030    0.8650 hn        1 MOL      0.591038
     29 H9         -2.2280    5.1620    1.4740 h1        1 MOL      0.073903
     30 H10         0.1680    4.2660   -0.3040 hc        1 MOL      0.020339
     31 H11         0.3070    4.8930    1.3130 hc        1 MOL      0.020339
     32 H12        -0.6510    6.6280   -0.9820 hc        1 MOL      0.009595
     33 H13         0.9150    6.6370   -0.3710 hc        1 MOL      0.009595
     34 H14        -0.1200    7.2310    1.9840 hc        1 MOL      0.045447
     35 H15        -1.6280    7.3300    1.1450 hc        1 MOL      0.045447
     36 H16        -1.0790    9.5040    0.9260 hx        1 MOL      0.128213
     37 H17        -0.4460    8.9030   -0.5740 hx        1 MOL      0.128213
     38 H18         1.8620    8.8610    0.5610 hn        1 MOL      0.340805
     39 H19         1.1000   10.3380    0.7520 hn        1 MOL      0.340805
     40 H20         1.1790    9.3530    1.9680 hn        1 MOL      0.340805
     41 N4         -3.1430    3.8510   -1.2440 n         1 MOL     -0.301473
     42 C13        -4.1200    3.9700   -2.3100 c3        1 MOL      0.026052
     43 C14        -5.5040    3.4250   -2.0870 c         1 MOL      0.403810
     44 O6         -6.4850    3.8630   -2.7100 o         1 MOL     -0.539976
     45 C15        -3.5260    3.4270   -3.5940 c3        1 MOL     -0.158889
     46 C16        -2.8380    2.0570   -3.5270 c         1 MOL      0.802650
     47 O7         -3.0380    1.2600   -2.5990 o         1 MOL     -0.714422
     48 O8         -2.0100    1.8360   -4.4150 o         1 MOL     -0.714422
     49 H21        -2.9440    2.8810   -1.0240 hn        1 MOL      0.113041
     50 H22        -4.2520    5.0320   -2.5350 h1        1 MOL      0.083581
     51 H23        -2.8540    4.2370   -3.8800 hc        1 MOL      0.047981
     52 H24        -4.1940    3.4070   -4.4500 hc        1 MOL      0.047981
     53 N5         -5.5900    2.4840   -1.1620 n         1 MOL      0.030007
     54 C17        -6.8370    1.8760   -0.7430 c3        1 MOL     -0.319888
     55 C18        -7.1590    0.5980   -1.6140 c         1 MOL      0.664422
     56 O9         -8.0570    0.6260   -2.4750 o         1 MOL     -0.571342
     57 H25        -4.7610    2.0280   -0.7980 hn        1 MOL      0.057169
     58 H26        -7.6320    2.6120   -0.6040 h1        1 MOL      0.118482
     59 H27        -6.6520    1.4710    0.2610 h1        1 MOL      0.118482
     60 N6         -6.5210   -0.5270   -1.4120 n         1 MOL     -0.407268
     61 C19        -6.8470   -1.8450   -2.0920 c3        1 MOL      0.023570
     62 C20        -6.9760   -2.9750   -1.0240 c         1 MOL      0.425526
     63 O10        -7.1030   -4.1420   -1.4070 o         1 MOL     -0.518038
     64 C21        -5.7670   -2.1270   -3.1230 c3        1 MOL     -0.127876
     65 C22        -4.3530   -2.1070   -2.6060 c         1 MOL      0.728070
     66 O11        -3.3830   -1.8900   -3.3520 o         1 MOL     -0.728072
     67 O12        -4.0930   -2.2330   -1.3760 o         1 MOL     -0.728072
     68 H28        -5.7000   -0.4820   -0.8350 hn        1 MOL      0.186606
     69 H29        -7.7900   -1.7770   -2.6380 h1        1 MOL      0.106681
     70 H30        -5.9160   -1.3890   -3.9180 hc        1 MOL      0.064243
     71 H31        -5.9190   -3.0970   -3.5870 hc        1 MOL      0.064243
     72 N7         -6.8020   -2.6580    0.2790 n         1 MOL     -0.300486
     73 C23        -6.9280   -3.6720    1.3040 c3        1 MOL      0.000223
     74 C24        -5.6140   -4.3940    1.6390 c         1 MOL      0.465278
     75 O13        -5.5860   -5.4410    2.3160 o         1 MOL     -0.541504
     76 H32        -6.5920   -1.7140    0.5710 hn        1 MOL      0.212140
     77 H33        -7.7350   -4.3810    1.1110 h1        1 MOL      0.070743
     78 H34        -7.2380   -3.2980    2.2810 h1        1 MOL      0.070743
     79 N8         -4.4730   -3.7300    1.2690 n         1 MOL     -0.266844
     80 C25        -3.1210   -4.3660    1.2600 c3        1 MOL     -0.252675
     81 C26        -2.0590   -3.3260    1.2550 c         1 MOL      0.835960
     82 O14        -2.2370   -2.2260    0.7590 o         1 MOL     -0.704701
     83 C27        -2.8550   -5.3280    0.0270 c3        1 MOL      0.374277
     84 C28        -3.4750   -6.7500    0.1280 c3        1 MOL     -0.451445
     85 O15        -3.3580   -4.8540   -1.2140 oh        1 MOL     -0.604290
     86 H35        -4.5490   -2.9580    0.6130 hn        1 MOL      0.210375
     87 H36        -2.9350   -4.9410    2.1590 h1        1 MOL      0.134159
     88 H37        -1.7850   -5.4080   -0.1800 h1        1 MOL      0.021727
     89 H38        -3.9810   -4.1700   -0.9580 ho        1 MOL      0.436399
     90 H39        -3.2890   -7.3280   -0.7830 hc        1 MOL      0.117270
     91 H40        -3.0380   -7.2600    0.9760 hc        1 MOL      0.117270
     92 H41        -4.5620   -6.6140    0.1880 hc        1 MOL      0.117270
     93 N9         -0.8730   -3.6880    1.8200 n         1 MOL     -0.754301
     94 C29         0.3670   -2.8740    1.9110 c3        1 MOL      0.047814
     95 C30         1.3230   -3.4170    0.8490 c         1 MOL      0.536035
     96 O16         1.5740   -4.6030    0.6040 o         1 MOL     -0.567515
     97 C31         0.8760   -2.7690    3.3660 c3        1 MOL      0.121734
     98 C32        -0.1750   -1.8990    4.0710 c3        1 MOL     -0.023919
     99 C33         2.3110   -2.3400    3.4250 c3        1 MOL     -0.296208
    100 C34         0.1900   -1.8230    5.5520 c3        1 MOL     -0.187002
    101 H42        -0.7980   -4.6370    2.1510 hn        1 MOL      0.323879
    102 H43         0.1050   -1.8470    1.6450 h1        1 MOL      0.137627
    103 H44         0.8460   -3.7590    3.8190 hc        1 MOL      0.031252
    104 H45        -1.1680   -2.3270    4.0060 hc        1 MOL      0.069075
    105 H46        -0.1890   -0.9000    3.6400 hc        1 MOL      0.069075
    106 H47         2.5710   -2.4290    4.4770 hc        1 MOL      0.064137
    107 H48         3.0820   -2.8190    2.8310 hc        1 MOL      0.064137
    108 H49         2.4390   -1.2910    3.1770 hc        1 MOL      0.064137
    109 H50         0.2780   -2.7970    6.0380 hc        1 MOL      0.044241
    110 H51         1.0770   -1.2570    5.8390 hc        1 MOL      0.044241
    111 H52        -0.6260   -1.3120    6.0770 hc        1 MOL      0.044241
    112 N10         2.1540   -2.5380    0.2210 n         1 MOL      0.011421
    113 C35         3.3160   -2.7710   -0.5450 c3        1 MOL     -0.034991
    114 C36         4.6140   -2.3280    0.1300 c         1 MOL      0.305948
    115 O17         4.6910   -1.5890    1.1080 o         1 MOL     -0.236513
    116 C37         3.2230   -2.0720   -1.9220 c3        1 MOL      0.403564
    117 C38         2.1790   -2.6200   -2.8570 c3        1 MOL     -0.534706
    118 O18         2.8910   -0.7060   -1.8080 oh        1 MOL     -0.591237
    119 H53         2.0860   -1.5810    0.5540 hn        1 MOL     -0.102029
    120 H54         3.4330   -3.8230   -0.7790 h1        1 MOL      0.056426
    121 H55         4.1650   -2.1420   -2.4580 h1        1 MOL     -0.033016
    122 H56         2.1010   -0.7100   -1.2700 ho        1 MOL      0.354364
    123 H57         2.2600   -3.6950   -2.9930 hc        1 MOL      0.143890
    124 H58         1.2230   -2.3380   -2.4190 hc        1 MOL      0.143890
    125 H59         2.3600   -2.0880   -3.7920 hc        1 MOL      0.143890
    126 N11         5.7910   -2.8580   -0.3430 n         1 MOL     -0.376876
    127 C39         7.1410   -2.4810    0.1550 c3        1 MOL     -0.121007
    128 C40         7.3340   -0.9240    0.1300 c         1 MOL      0.202010
    129 O19         7.8400   -0.3710    1.1180 o         1 MOL     -0.464027
    130 C41         8.3310   -3.2130   -0.4880 c3        1 MOL      0.308866
    131 C42         8.2280   -4.7160   -0.4580 c3        1 MOL     -0.390415
    132 O20         8.3620   -2.8380   -1.7930 oh        1 MOL     -0.632873
    133 H60         5.8100   -3.5010   -1.1160 hn        1 MOL      0.287010
    134 H61         7.1890   -2.9070    1.1580 h1        1 MOL      0.158446
    135 H62         9.3050   -2.9870   -0.0370 h1        1 MOL      0.043971
    136 H63         9.1750   -3.1770   -2.1750 ho        1 MOL      0.374456
    137 H64         7.4730   -4.9960   -1.1930 hc        1 MOL      0.115077
    138 H65         9.2020   -5.1920   -0.5600 hc        1 MOL      0.115077
    139 H66         7.9600   -5.0540    0.5450 hc        1 MOL      0.115077
    140 N12         6.8620   -0.1720   -0.8580 n         1 MOL     -0.040209
    141 C43         6.9290    1.2530   -0.9920 c3        1 MOL      0.059575
    142 C44         5.9740    1.9400   -0.0950 c         1 MOL      0.302973
    143 O21         6.2180    3.1090    0.3010 o         1 MOL     -0.538823
    144 C45         6.6650    1.6520   -2.4820 c3        1 MOL     -0.203117
    145 C46         8.0300    1.7470   -3.2260 c3        1 MOL     -0.058094
    146 C47         8.8410    0.4740   -3.1340 c3        1 MOL     -0.242681
    147 C48        10.0650    0.8120   -3.9370 c3        1 MOL      0.098605
    148 N13        10.7860   -0.4450   -4.1930 n4        1 MOL     -0.238553
    149 H67         6.4050   -0.6450   -1.6180 hn        1 MOL      0.204258
    150 H68         7.8910    1.6490   -0.6650 h1        1 MOL      0.085729
    151 H69         6.1790    2.6170   -2.4870 hc        1 MOL      0.096011
    152 H70         5.9980    0.9010   -2.9070 hc        1 MOL      0.096011
    153 H71         8.5900    2.5960   -2.8300 hc        1 MOL      0.070181
    154 H72         7.8820    2.1440   -4.2300 hc        1 MOL      0.070181
    155 H73         8.3320   -0.4040   -3.5470 hc        1 MOL      0.116125
    156 H74         9.1900    0.3800   -2.1060 hc        1 MOL      0.116125
    157 H75        10.6360    1.5180   -3.3440 hx        1 MOL      0.064579
    158 H76         9.8770    1.3370   -4.8720 hx        1 MOL      0.064579
    159 H77        11.1180   -0.9070   -3.3560 hn        1 MOL      0.264344
    160 H78        10.3950   -1.0730   -4.8720 hn        1 MOL      0.264344
    161 H79        11.6810   -0.2090   -4.5760 hn        1 MOL      0.264344
    162 N14         4.9700    1.2660    0.4780 n         1 MOL      0.003303
    163 C49         4.0580    1.7680    1.5250 c3        1 MOL     -0.182699
    164 C50         4.5440    1.4070    2.9500 c         1 MOL      0.436609
    165 O22         3.9550    1.9140    3.9330 o         1 MOL     -0.530941
    166 C51         2.6930    1.1460    1.3490 c3        1 MOL      0.064149
    167 C52         1.8010    1.8190    0.2320 c3        1 MOL     -0.125184
    168 C53         0.6320    0.8580   -0.0690 c         1 MOL      0.900155
    169 O23         0.7870   -0.3390   -0.4140 o         1 MOL     -0.864152
    170 O24        -0.5160    1.2940   -0.0040 o         1 MOL     -0.864152
    171 H80         4.6640    0.4110    0.0370 hn        1 MOL      0.037305
    172 H81         3.9710    2.8530    1.5340 h1        1 MOL      0.129103
    173 H82         2.1200    1.1380    2.2760 hc        1 MOL      0.102075
    174 H83         2.7550    0.0790    1.1580 hc        1 MOL      0.102075
    175 H84         2.4220    2.0040   -0.6440 hc        1 MOL      0.013417
    176 H85         1.4340    2.7410    0.6870 hc        1 MOL      0.013417
    177 N15         5.5250    0.5030    3.1120 n         1 MOL     -0.163047
    178 C54         6.0930   -0.0950    4.3370 c3        1 MOL     -0.167341
    179 H86         6.3850   -1.1260    4.1350 h1        1 MOL      0.085341
    180 H87         6.9680    0.4750    4.6480 h1        1 MOL      0.085341
    181 H88         5.3460   -0.0770    5.1300 h1        1 MOL      0.085341
    182 H89         5.6680   -0.0700    2.2900 hn        1 MOL      0.102822
    183 Ca1        -1.9480   -0.6040   -1.1420 Ca        1 MOL      1.799718
    184 O25        -1.2820   -3.0980   -2.3370 oh        1 MOL     -0.848389
    185 H90        -2.0240   -2.8330   -2.8730 ho        1 MOL      0.403818
    186 H91        -1.4160   -4.0250   -2.1780 ho        1 MOL      0.403818
    187 O26        -0.3630   -0.1050   -3.2430 oh        1 MOL     -0.848389
    188 H92         0.2330   -0.3970   -3.9350 ho        1 MOL      0.403818
    189 H93        -0.7450    0.7080   -3.5780 ho        1 MOL      0.403818
@<TRIPOS>BOND
     1    1    2 1   
     2    1    4 1   
     3    1    5 1   
     4    1    6 1   
     5    2    3 2   
     6    2    7 1   
     7    7    8 1   
     8    7   15 1   
     9    8    9 1   
    10    8   11 1   
    11    8   16 1   
    12    9   10 2   
    13    9   19 1   
    14   11   12 1   
    15   11   17 1   
    16   11   18 1   
    17   12   13 1   
    18   12   14 1   
    19   19   20 1   
    20   19   28 1   
    21   20   21 1   
    22   20   23 1   
    23   20   29 1   
    24   21   22 2   
    25   21   41 1   
    26   23   24 1   
    27   23   30 1   
    28   23   31 1   
    29   24   25 1   
    30   24   32 1   
    31   24   33 1   
    32   25   26 1   
    33   25   34 1   
    34   25   35 1   
    35   26   27 1   
    36   26   36 1   
    37   26   37 1   
    38   27   38 1   
    39   27   39 1   
    40   27   40 1   
    41   41   42 1   
    42   41   49 1   
    43   42   43 1   
    44   42   45 1   
    45   42   50 1   
    46   43   44 2   
    47   43   53 1   
    48   45   46 1   
    49   45   51 1   
    50   45   52 1   
    51   46   47 1   
    52   46   48 1   
    53   53   54 1   
    54   53   57 1   
    55   54   55 1   
    56   54   58 1   
    57   54   59 1   
    58   55   56 2   
    59   55   60 1   
    60   60   61 1   
    61   60   68 1   
    62   61   62 1   
    63   61   64 1   
    64   61   69 1   
    65   62   63 2   
    66   62   72 1   
    67   64   65 1   
    68   64   70 1   
    69   64   71 1   
    70   65   66 1   
    71   65   67 1   
    72   72   73 1   
    73   72   76 1   
    74   73   74 1   
    75   73   77 1   
    76   73   78 1   
    77   74   75 2   
    78   74   79 1   
    79   79   80 1   
    80   79   86 1   
    81   80   81 1   
    82   80   83 1   
    83   80   87 1   
    84   81   82 2   
    85   81   93 1   
    86   83   84 1   
    87   83   85 1   
    88   83   88 1   
    89   84   90 1   
    90   84   91 1   
    91   84   92 1   
    92   85   89 1   
    93   93   94 1   
    94   93  101 1   
    95   94   95 1   
    96   94   97 1   
    97   94  102 1   
    98   95   96 2   
    99   95  112 1   
   100   97   98 1   
   101   97   99 1   
   102   97  103 1   
   103   98  100 1   
   104   98  104 1   
   105   98  105 1   
   106   99  106 1   
   107   99  107 1   
   108   99  108 1   
   109  100  109 1   
   110  100  110 1   
   111  100  111 1   
   112  112  113 1   
   113  112  119 1   
   114  113  114 1   
   115  113  116 1   
   116  113  120 1   
   117  114  115 2   
   118  114  126 1   
   119  116  117 1   
   120  116  118 1   
   121  116  121 1   
   122  117  123 1   
   123  117  124 1   
   124  117  125 1   
   125  118  122 1   
   126  126  127 1   
   127  126  133 1   
   128  127  128 1   
   129  127  130 1   
   130  127  134 1   
   131  128  129 2   
   132  128  140 1   
   133  130  131 1   
   134  130  132 1   
   135  130  135 1   
   136  131  137 1   
   137  131  138 1   
   138  131  139 1   
   139  132  136 1   
   140  140  141 1   
   141  140  149 1   
   142  141  142 1   
   143  141  144 1   
   144  141  150 1   
   145  142  143 2   
   146  142  162 1   
   147  144  145 1   
   148  144  151 1   
   149  144  152 1   
   150  145  146 1   
   151  145  153 1   
   152  145  154 1   
   153  146  147 1   
   154  146  155 1   
   155  146  156 1   
   156  147  148 1   
   157  147  157 1   
   158  147  158 1   
   159  148  159 1   
   160  148  160 1   
   161  148  161 1   
   162  162  163 1   
   163  162  171 1   
   164  163  164 1   
   165  163  166 1   
   166  163  172 1   
   167  164  165 2   
   168  164  177 1   
   169  166  167 1   
   170  166  173 1   
   171  166  174 1   
   172  167  168 1   
   173  167  175 1   
   174  167  176 1   
   175  168  169 1   
   176  168  170 1   
   177  177  178 1   
   178  177  182 1   
   179  178  179 1   
   180  178  180 1   
   181  178  181 1   
   182  184  185 1   
   183  184  186 1   
   184  187  188 1   
   185  187  189 1   
@<TRIPOS>SUBSTRUCTURE
     1 MOL         1 TEMP              0 ****  ****    0 ROOT
