@<TRIPOS>MOLECULE
MOL
  179   176     1     0     0
SMALL
resp


@<TRIPOS>ATOM
      1 C1          1.1350    2.8440    6.3590 c3        1 MOL     -0.314917
      2 C2          0.9110    2.4640    4.8640 c         1 MOL      0.738200
      3 O1          1.8580    2.2130    4.1410 o         1 MOL     -0.587987
      4 H1          0.3700    2.3670    6.9730 hc        1 MOL      0.073919
      5 H2          2.1200    2.5040    6.6780 hc        1 MOL      0.073919
      6 H3          1.0690    3.9260    6.4730 hc        1 MOL      0.073919
      7 N1         -0.3680    2.6150    4.4970 n         1 MOL     -0.586165
      8 C3         -0.6500    2.5560    3.0490 c3        1 MOL      0.036755
      9 C4         -0.1800    3.8170    2.3370 c         1 MOL      0.538405
     10 O2         -0.5960    4.9080    2.7160 o         1 MOL     -0.567154
     11 C5         -2.1790    2.3090    2.8960 c3        1 MOL     -0.090526
     12 C6         -2.5550    1.7620    1.4790 c         1 MOL      0.724398
     13 O3         -3.7290    1.3020    1.4150 o         1 MOL     -0.728378
     14 O4         -1.8150    1.7800    0.4400 o         1 MOL     -0.728378
     15 H4         -1.1580    2.8540    5.0720 hn        1 MOL      0.332318
     16 H5         -0.0600    1.6830    2.7510 h1        1 MOL      0.039802
     17 H6         -2.7650    3.1920    3.1620 hc        1 MOL      0.045354
     18 H7         -2.4070    1.5160    3.6140 hc        1 MOL      0.045354
     19 N2          0.7140    3.7270    1.3770 n         1 MOL     -0.104326
     20 C7          1.3700    4.8360    0.6730 c3        1 MOL     -0.444604
     21 C8          0.3920    5.5100   -0.2710 c         1 MOL      0.628327
     22 O5          0.3440    6.7310   -0.4210 o         1 MOL     -0.559949
     23 C9          2.6350    4.3320    0.0400 c3        1 MOL      0.210680
     24 C10         3.6270    5.5240   -0.3000 c3        1 MOL     -0.123016
     25 C11         4.6380    4.9920   -1.3370 c3        1 MOL     -0.226031
     26 C12         5.0530    6.0820   -2.3910 c3        1 MOL      0.131382
     27 N3          5.8300    7.1220   -1.7050 n4        1 MOL     -0.362800
     28 H8          0.9830    2.7770    1.1310 hn        1 MOL      0.200502
     29 H9          1.5690    5.5690    1.4570 h1        1 MOL      0.157301
     30 H10         2.4550    3.7550   -0.8650 hc        1 MOL      0.073916
     31 H11         3.2130    3.6820    0.6990 hc        1 MOL      0.073916
     32 H12         4.1110    5.8720    0.6100 hc        1 MOL      0.045668
     33 H13         3.0020    6.3210   -0.7150 hc        1 MOL      0.045668
     34 H14         4.1880    4.1910   -1.9230 hc        1 MOL      0.099210
     35 H15         5.5250    4.6950   -0.7700 hc        1 MOL      0.099210
     36 H16         4.1810    6.5900   -2.7890 hx        1 MOL      0.067737
     37 H17         5.5560    5.7310   -3.2900 hx        1 MOL      0.067737
     38 H18         6.8250    6.9640   -1.7940 hn        1 MOL      0.324683
     39 H19         5.6100    8.0560   -2.0050 hn        1 MOL      0.324683
     40 H20         5.6350    7.1210   -0.7100 hn        1 MOL      0.324683
     41 N4         -0.4330    4.6740   -0.9630 n         1 MOL     -0.343013
     42 C13        -1.4410    5.1300   -1.9030 c3        1 MOL      0.085130
     43 C14        -2.8950    5.1520   -1.3590 c         1 MOL      0.467392
     44 O6         -3.6830    5.8980   -1.8940 o         1 MOL     -0.539071
     45 C15        -1.4820    4.3150   -3.2260 c3        1 MOL     -0.255255
     46 C16        -1.3310    2.8440   -2.8470 c         1 MOL      0.741275
     47 O7         -0.2480    2.3780   -2.4400 o         1 MOL     -0.707612
     48 O8         -2.2620    2.0480   -2.9140 o         1 MOL     -0.707612
     49 H21        -0.0890    3.7340   -0.9410 hn        1 MOL      0.102169
     50 H22        -1.2700    6.1520   -2.2250 h1        1 MOL      0.071974
     51 H23        -0.6650    4.5770   -3.8910 hc        1 MOL      0.076620
     52 H24        -2.3450    4.5670   -3.8330 hc        1 MOL      0.076620
     53 N5         -3.1150    4.4170   -0.2590 n         1 MOL     -0.132198
     54 C17        -4.3980    4.4090    0.4060 c3        1 MOL     -0.279761
     55 C18        -5.4920    3.4870   -0.1070 c         1 MOL      0.633357
     56 O9         -6.6170    3.5950    0.1990 o         1 MOL     -0.579451
     57 H25        -2.3990    3.8050    0.1010 hn        1 MOL      0.136374
     58 H26        -4.8390    5.3860    0.2320 h1        1 MOL      0.125459
     59 H27        -4.2850    4.3400    1.4860 h1        1 MOL      0.125459
     60 N6         -5.1210    2.4880   -0.9190 n         1 MOL     -0.204963
     61 C19        -6.0320    1.5100   -1.5480 c3        1 MOL     -0.156542
     62 C20        -6.5940    0.3730   -0.6470 c         1 MOL      0.435602
     63 O10        -7.3890   -0.4460   -1.1360 o         1 MOL     -0.530830
     64 C21        -5.4600    0.9060   -2.8550 c3        1 MOL     -0.123059
     65 C22        -4.5410   -0.3030   -2.6240 c         1 MOL      0.594551
     66 N7         -4.7330   -1.2680   -3.5190 n         1 MOL     -0.739415
     67 O11        -3.6580   -0.4160   -1.8030 o         1 MOL     -0.585397
     68 H28        -4.1460    2.2610   -1.0310 hn        1 MOL      0.076575
     69 H29        -6.8110    2.1860   -1.9150 h1        1 MOL      0.144186
     70 H30        -4.8530    1.5380   -3.5010 hc        1 MOL      0.081449
     71 H31        -6.3190    0.5180   -3.3920 hc        1 MOL      0.081449
     72 H32        -5.4050   -1.0700   -4.2470 hn        1 MOL      0.344676
     73 H33        -4.0460   -1.9900   -3.6510 hn        1 MOL      0.344676
     74 N8         -6.1520    0.3190    0.5920 n         1 MOL     -0.155755
     75 C23        -6.5920   -0.6940    1.6310 c3        1 MOL     -0.252291
     76 C24        -5.7590   -1.9100    1.7090 c         1 MOL      0.645917
     77 O12        -6.1300   -2.8730    2.3400 o         1 MOL     -0.538680
     78 H34        -5.3660    0.8910    0.8840 hn        1 MOL      0.242833
     79 H35        -7.6580   -0.9150    1.6820 h1        1 MOL      0.122372
     80 H36        -6.4400   -0.2550    2.6240 h1        1 MOL      0.122372
     81 N9         -4.5540   -1.8080    1.1110 n         1 MOL     -0.607867
     82 C25        -3.5400   -2.8920    1.0630 c3        1 MOL      0.262313
     83 C26        -2.0640   -2.2870    1.0850 c         1 MOL      0.392252
     84 O13        -1.8220   -1.2190    0.4940 o         1 MOL     -0.510395
     85 C27        -3.6880   -3.6070   -0.2260 c3        1 MOL      0.072274
     86 C28        -4.9900   -4.2990   -0.4410 ca        1 MOL     -0.086059
     87 C29        -6.0400   -3.6720   -1.1410 ca        1 MOL     -0.120906
     88 C30        -5.2070   -5.6240   -0.0030 ca        1 MOL     -0.120906
     89 C31        -7.2980   -4.3040   -1.4000 ca        1 MOL     -0.236097
     90 C32        -6.4210   -6.2820   -0.2090 ca        1 MOL     -0.236097
     91 C33        -7.4690   -5.6500   -0.9010 ca        1 MOL      0.295141
     92 O14        -8.6700   -6.2730   -1.0230 oh        1 MOL     -0.493827
     93 H37        -4.3090   -1.0060    0.5440 hn        1 MOL      0.408854
     94 H38        -3.6720   -3.5490    1.9180 h1        1 MOL      0.021041
     95 H39        -2.8970   -4.3430   -0.3360 hc        1 MOL     -0.015108
     96 H40        -3.5910   -2.8670   -1.0240 hc        1 MOL     -0.015108
     97 H41        -5.9540   -2.6330   -1.4200 ha        1 MOL      0.118791
     98 H42        -4.4710   -6.2350    0.5120 ha        1 MOL      0.118791
     99 H43        -8.0730   -3.7840   -1.9400 ha        1 MOL      0.146502
    100 H44        -6.5900   -7.2980    0.1210 ha        1 MOL      0.146502
    101 H45        -9.2770   -5.6320   -1.4040 ho        1 MOL      0.376392
    102 N10        -1.2700   -3.0580    1.7350 n         1 MOL     -0.424354
    103 C34         0.1770   -2.9990    1.8030 c3        1 MOL      0.010474
    104 C35         0.9200   -4.1120    1.0460 c         1 MOL      0.416542
    105 O15         0.8790   -5.3340    1.3790 o         1 MOL     -0.521582
    106 C36         0.6050   -2.8720    3.2530 c3        1 MOL      0.074792
    107 C37         0.1500   -1.4940    3.8830 c3        1 MOL      0.061424
    108 C38         2.1270   -3.0520    3.4780 c3        1 MOL     -0.271927
    109 C39        -0.1870   -1.5510    5.3410 c3        1 MOL     -0.256532
    110 H46        -1.6580   -3.7550    2.3580 hn        1 MOL      0.283480
    111 H47         0.4590   -2.0220    1.4080 h1        1 MOL      0.014647
    112 H48         0.1410   -3.6270    3.8800 hc        1 MOL      0.048248
    113 H49        -0.6740   -1.0400    3.3290 hc        1 MOL      0.041819
    114 H50         0.9580   -0.8010    3.6370 hc        1 MOL      0.041819
    115 H51         2.4420   -4.0690    3.2480 hc        1 MOL      0.071529
    116 H52         2.6360   -2.2910    2.8940 hc        1 MOL      0.071529
    117 H53         2.4070   -2.8500    4.5070 hc        1 MOL      0.071529
    118 H54        -0.8240   -2.4210    5.5310 hc        1 MOL      0.055928
    119 H55         0.7620   -1.7200    5.8380 hc        1 MOL      0.055928
    120 H56        -0.6370   -0.6410    5.7530 hc        1 MOL      0.055928
    121 N11         1.7580   -3.6370    0.1070 n         1 MOL     -0.107153
    122 C40         2.7620   -4.3700   -0.6680 c3        1 MOL     -0.201949
    123 C41         4.1990   -4.2240   -0.2660 c         1 MOL      0.589999
    124 O16         4.5790   -3.2010    0.3480 o         1 MOL     -0.547053
    125 C42         2.5840   -3.9330   -2.1680 c3        1 MOL      0.139685
    126 O17         2.6150   -2.5850   -2.3300 oh        1 MOL     -0.521564
    127 H57         1.5950   -2.6850   -0.1620 hn        1 MOL      0.236067
    128 H58         2.5060   -5.4210   -0.5960 h1        1 MOL      0.076036
    129 H59         1.6210   -4.2710   -2.5510 h1        1 MOL      0.009775
    130 H60         3.4130   -4.3790   -2.7330 h1        1 MOL      0.009775
    131 H61         2.1090   -2.1800   -1.6160 ho        1 MOL      0.392720
    132 N12         5.0580   -5.1070   -0.6920 n         1 MOL     -0.446915
    133 C43         6.5080   -5.0140   -0.3090 c3        1 MOL      0.155198
    134 C44         7.2170   -3.7490   -0.7720 c         1 MOL      0.417056
    135 O18         7.8210   -3.0950    0.0810 o         1 MOL     -0.508390
    136 C45         7.2650   -6.2760   -0.6980 c3        1 MOL     -0.354665
    137 H62         4.5860   -5.8660   -1.1470 hn        1 MOL      0.289139
    138 H63         6.5230   -5.0130    0.7850 h1        1 MOL      0.093658
    139 H64         7.1800   -6.4990   -1.7580 hc        1 MOL      0.109277
    140 H65         8.2940   -6.2310   -0.3330 hc        1 MOL      0.109277
    141 H66         6.8390   -7.1390   -0.1770 hc        1 MOL      0.109277
    142 N13         7.0680   -3.2070   -1.9630 n         1 MOL     -0.392724
    143 C46         7.7540   -1.9430   -2.4050 c3        1 MOL      0.169322
    144 C47         7.3570   -0.7290   -1.5500 c         1 MOL      0.343603
    145 O19         8.1470    0.1830   -1.2340 o         1 MOL     -0.497948
    146 C48         7.7250   -1.6980   -3.9190 c3        1 MOL     -0.358212
    147 H67         6.5920   -3.7720   -2.6580 hn        1 MOL      0.278678
    148 H68         8.8030   -2.0590   -2.1160 h1        1 MOL      0.090783
    149 H69         6.7790   -2.0630   -4.3020 hc        1 MOL      0.105759
    150 H70         7.9480   -0.6830   -4.2550 hc        1 MOL      0.105759
    151 H71         8.4750   -2.3210   -4.4010 hc        1 MOL      0.105759
    152 N14         6.0670   -0.6260   -1.1190 n         1 MOL     -0.219038
    153 C49         5.5660    0.4950   -0.3540 c3        1 MOL      0.068451
    154 C50         5.9180    0.5650    1.1240 c         1 MOL      0.429923
    155 O20         6.2310    1.6460    1.6990 o         1 MOL     -0.545786
    156 C51         4.0780    0.5820   -0.5290 c3        1 MOL      0.192423
    157 C52         3.2090    0.1570    0.6870 c3        1 MOL     -0.094389
    158 C53         1.8190    0.0800    0.1350 c         1 MOL      0.790746
    159 O21         1.5220   -0.7340   -0.7210 o         1 MOL     -0.757993
    160 O22         1.0570    1.0070    0.4350 o         1 MOL     -0.757993
    161 H72         5.3390   -1.2400   -1.4540 hn        1 MOL      0.198886
    162 H73         5.9230    1.4470   -0.7470 h1        1 MOL      0.003367
    163 H74         3.8900   -0.0610   -1.3880 hc        1 MOL     -0.084362
    164 H75         3.8900    1.6390   -0.7330 hc        1 MOL     -0.084362
    165 H76         3.1710    0.9730    1.4000 hc        1 MOL     -0.014502
    166 H77         3.5610   -0.7890    1.0850 hc        1 MOL     -0.014502
    167 N15         6.0160   -0.6470    1.7380 n         1 MOL     -0.136308
    168 C54         6.5680   -0.9280    3.0760 c3        1 MOL     -0.236034
    169 H78         5.7950   -1.3720    3.7020 h1        1 MOL      0.099191
    170 H79         7.4050   -1.6210    2.9860 h1        1 MOL      0.099191
    171 H80         6.9120    0.0020    3.5300 h1        1 MOL      0.099191
    172 H81         5.6400   -1.4680    1.2890 hn        1 MOL      0.230109
    173 Ca1        -0.9600    0.2550   -1.3860 Ca        1 MOL      1.782418
    174 O23         0.0520   -0.1580   -4.0010 oh        1 MOL     -0.894821
    175 H82         0.4220    0.4110   -4.6710 ho        1 MOL      0.425570
    176 H83        -0.1230   -0.9880   -4.4410 ho        1 MOL      0.425570
    177 O24        -0.9780   -2.3450   -2.4030 oh        1 MOL     -0.894821
    178 H84        -1.8750   -2.5750   -2.6550 ho        1 MOL      0.425570
    179 H85        -0.4250   -2.8850   -2.9700 ho        1 MOL      0.425570
@<TRIPOS>BOND
     1    1    2 1   
     2    1    4 1   
     3    1    5 1   
     4    1    6 1   
     5    2    3 2   
     6    2    7 1   
     7    7    8 1   
     8    7   15 1   
     9    8    9 1   
    10    8   11 1   
    11    8   16 1   
    12    9   10 2   
    13    9   19 1   
    14   11   12 1   
    15   11   17 1   
    16   11   18 1   
    17   12   13 1   
    18   12   14 1   
    19   19   20 1   
    20   19   28 1   
    21   20   21 1   
    22   20   23 1   
    23   20   29 1   
    24   21   22 2   
    25   21   41 1   
    26   23   24 1   
    27   23   30 1   
    28   23   31 1   
    29   24   25 1   
    30   24   32 1   
    31   24   33 1   
    32   25   26 1   
    33   25   34 1   
    34   25   35 1   
    35   26   27 1   
    36   26   36 1   
    37   26   37 1   
    38   27   38 1   
    39   27   39 1   
    40   27   40 1   
    41   41   42 1   
    42   41   49 1   
    43   42   43 1   
    44   42   45 1   
    45   42   50 1   
    46   43   44 2   
    47   43   53 1   
    48   45   46 1   
    49   45   51 1   
    50   45   52 1   
    51   46   47 1   
    52   46   48 1   
    53   53   54 1   
    54   53   57 1   
    55   54   55 1   
    56   54   58 1   
    57   54   59 1   
    58   55   56 2   
    59   55   60 1   
    60   60   61 1   
    61   60   68 1   
    62   61   62 1   
    63   61   64 1   
    64   61   69 1   
    65   62   63 2   
    66   62   74 1   
    67   64   65 1   
    68   64   70 1   
    69   64   71 1   
    70   65   66 1   
    71   65   67 2   
    72   66   72 1   
    73   66   73 1   
    74   74   75 1   
    75   74   78 1   
    76   75   76 1   
    77   75   79 1   
    78   75   80 1   
    79   76   77 2   
    80   76   81 1   
    81   81   82 1   
    82   81   93 1   
    83   82   83 1   
    84   82   85 1   
    85   82   94 1   
    86   83   84 2   
    87   83  102 1   
    88   85   86 1   
    89   85   95 1   
    90   85   96 1   
    91   86   87 ar  
    92   86   88 ar  
    93   87   89 ar  
    94   87   97 1   
    95   88   90 ar  
    96   88   98 1   
    97   89   91 ar  
    98   89   99 1   
    99   90   91 ar  
   100   90  100 1   
   101   91   92 1   
   102   92  101 1   
   103  102  103 1   
   104  102  110 1   
   105  103  104 1   
   106  103  106 1   
   107  103  111 1   
   108  104  105 2   
   109  104  121 1   
   110  106  107 1   
   111  106  108 1   
   112  106  112 1   
   113  107  109 1   
   114  107  113 1   
   115  107  114 1   
   116  108  115 1   
   117  108  116 1   
   118  108  117 1   
   119  109  118 1   
   120  109  119 1   
   121  109  120 1   
   122  121  122 1   
   123  121  127 1   
   124  122  123 1   
   125  122  125 1   
   126  122  128 1   
   127  123  124 2   
   128  123  132 1   
   129  125  126 1   
   130  125  129 1   
   131  125  130 1   
   132  126  131 1   
   133  132  133 1   
   134  132  137 1   
   135  133  134 1   
   136  133  136 1   
   137  133  138 1   
   138  134  135 2   
   139  134  142 1   
   140  136  139 1   
   141  136  140 1   
   142  136  141 1   
   143  142  143 1   
   144  142  147 1   
   145  143  144 1   
   146  143  146 1   
   147  143  148 1   
   148  144  145 2   
   149  144  152 1   
   150  146  149 1   
   151  146  150 1   
   152  146  151 1   
   153  152  153 1   
   154  152  161 1   
   155  153  154 1   
   156  153  156 1   
   157  153  162 1   
   158  154  155 2   
   159  154  167 1   
   160  156  157 1   
   161  156  163 1   
   162  156  164 1   
   163  157  158 1   
   164  157  165 1   
   165  157  166 1   
   166  158  159 1   
   167  158  160 1   
   168  167  168 1   
   169  167  172 1   
   170  168  169 1   
   171  168  170 1   
   172  168  171 1   
   173  174  175 1   
   174  174  176 1   
   175  177  178 1   
   176  177  179 1   
@<TRIPOS>SUBSTRUCTURE
     1 MOL         1 TEMP              0 ****  ****    0 ROOT
