@<TRIPOS>MOLECULE
MOL
  179   176     1     0     0
SMALL
resp


@<TRIPOS>ATOM
      1 C1          2.0220    1.9920    5.5590 c3        1 MOL     -0.311520
      2 C2          1.2930    2.0810    4.1750 c         1 MOL      0.676833
      3 O1          1.9030    1.8840    3.1680 o         1 MOL     -0.573785
      4 H1          1.7000    1.0910    6.0820 hc        1 MOL      0.079253
      5 H2          3.1000    1.9550    5.4010 hc        1 MOL      0.079253
      6 H3          1.7730    2.8680    6.1580 hc        1 MOL      0.079253
      7 N1         -0.0370    2.1740    4.1580 n         1 MOL     -0.453281
      8 C3         -0.8290    2.0620    2.9080 c3        1 MOL      0.066508
      9 C4         -0.8880    3.4300    2.2620 c         1 MOL      0.224733
     10 O2         -1.5560    4.3170    2.8030 o         1 MOL     -0.447000
     11 C5         -2.2070    1.5150    3.2580 c3        1 MOL     -0.158936
     12 C6         -3.1070    0.9890    2.1020 c         1 MOL      0.672113
     13 O3         -4.2510    0.6570    2.4300 o         1 MOL     -0.646890
     14 O4         -2.6590    1.0320    0.8990 o         1 MOL     -0.646890
     15 H4         -0.5280    2.2230    5.0470 hn        1 MOL      0.281945
     16 H5         -0.3390    1.3600    2.2300 h1        1 MOL      0.095195
     17 H6         -2.7920    2.1510    3.9200 hc        1 MOL      0.052070
     18 H7         -1.9970    0.6150    3.8430 hc        1 MOL      0.052070
     19 N2         -0.1440    3.6740    1.1650 n         1 MOL     -0.032931
     20 C7          0.2640    5.0520    0.7400 c3        1 MOL     -0.066102
     21 C8         -0.8870    5.6750   -0.0060 c         1 MOL      0.407096
     22 O5         -1.2370    6.7870    0.3530 o         1 MOL     -0.545307
     23 C9          1.5570    4.9850   -0.0220 c3        1 MOL      0.060492
     24 C10         2.1540    6.4050   -0.3870 c3        1 MOL     -0.200004
     25 C11         3.6400    6.3230   -0.6120 c3        1 MOL     -0.107213
     26 C12         4.2770    7.7550   -0.8820 c3        1 MOL     -0.072098
     27 N3          3.8300    8.2910   -2.1680 n4        1 MOL     -0.214672
     28 H8          0.3270    2.8990    0.7310 hn        1 MOL      0.130582
     29 H9          0.4090    5.6350    1.6510 h1        1 MOL      0.108692
     30 H10         1.4060    4.4620   -0.9740 hc        1 MOL      0.036092
     31 H11         2.2150    4.3440    0.5620 hc        1 MOL      0.036092
     32 H12         2.0810    7.0100    0.5190 hc        1 MOL      0.080988
     33 H13         1.5930    6.8380   -1.2090 hc        1 MOL      0.080988
     34 H14         4.0080    5.6210   -1.3520 hc        1 MOL      0.098648
     35 H15         4.0360    6.0150    0.3570 hc        1 MOL      0.098648
     36 H16         5.3650    7.7400   -0.9230 hx        1 MOL      0.116421
     37 H17         3.9610    8.4310   -0.0920 hx        1 MOL      0.116421
     38 H18         4.2390    9.2150   -2.2580 hn        1 MOL      0.291777
     39 H19         4.0830    7.7880   -3.0030 hn        1 MOL      0.291777
     40 H20         2.8370    8.4490   -2.2300 hn        1 MOL      0.291777
     41 N4         -1.5620    4.9170   -0.8760 n         1 MOL     -0.252279
     42 C13        -2.7710    5.1750   -1.6130 c3        1 MOL      0.055514
     43 C14        -4.0540    4.7610   -0.8460 c         1 MOL      0.414633
     44 O6         -5.1600    5.0400   -1.2260 o         1 MOL     -0.537549
     45 C15        -2.6250    4.5460   -2.9860 c3        1 MOL     -0.307355
     46 C16        -2.1750    3.0980   -3.0360 c         1 MOL      0.792266
     47 O7         -2.3520    2.3290   -2.0470 o         1 MOL     -0.723961
     48 O8         -1.6300    2.7060   -4.1450 o         1 MOL     -0.723961
     49 H21        -1.2030    3.9740   -0.8770 hn        1 MOL      0.125379
     50 H22        -2.9470    6.2410   -1.7500 h1        1 MOL      0.101956
     51 H23        -2.0140    5.2500   -3.5710 hc        1 MOL      0.089897
     52 H24        -3.5990    4.5580   -3.4670 hc        1 MOL      0.089897
     53 N5         -3.9500    4.2130    0.3870 n         1 MOL     -0.044119
     54 C17        -5.0590    3.8190    1.2450 c3        1 MOL     -0.129157
     55 C18        -5.9660    2.7230    0.6440 c         1 MOL      0.559564
     56 O9         -7.1310    2.7860    0.8890 o         1 MOL     -0.588772
     57 H25        -3.0360    3.9340    0.7070 hn        1 MOL      0.034358
     58 H26        -5.5770    4.7290    1.5240 h1        1 MOL      0.097473
     59 H27        -4.5690    3.3910    2.1280 h1        1 MOL      0.097473
     60 N6         -5.5030    1.8370   -0.2410 n         1 MOL     -0.186794
     61 C19        -6.3810    0.9060   -0.9650 c3        1 MOL     -0.039122
     62 C20        -6.7200   -0.4240   -0.3130 c         1 MOL      0.323770
     63 O10        -7.4750   -1.1280   -0.9500 o         1 MOL     -0.524795
     64 C21        -5.9210    0.7310   -2.3510 c3        1 MOL     -0.189050
     65 C22        -4.8010   -0.2650   -2.5490 c         1 MOL      0.765158
     66 N7         -4.7590   -1.0060   -3.7100 n         1 MOL     -0.834164
     67 O11        -3.8360   -0.3750   -1.7830 o         1 MOL     -0.656476
     68 H28        -4.4850    1.8390   -0.2010 hn        1 MOL      0.080028
     69 H29        -7.3300    1.4310   -1.0550 h1        1 MOL      0.152629
     70 H30        -5.6490    1.7270   -2.7000 hc        1 MOL      0.085537
     71 H31        -6.7940    0.4590   -2.9360 hc        1 MOL      0.085537
     72 H32        -5.2990   -0.7400   -4.5310 hn        1 MOL      0.355733
     73 H33        -3.9330   -1.5540   -3.9100 hn        1 MOL      0.355733
     74 N8         -6.0890   -0.8430    0.7930 n         1 MOL     -0.044029
     75 C23        -6.3000   -2.1220    1.5850 c3        1 MOL     -0.336326
     76 C24        -5.0410   -2.9330    1.9420 c         1 MOL      0.716022
     77 O12        -5.1040   -3.9430    2.6400 o         1 MOL     -0.576530
     78 H34        -5.5020   -0.1550    1.2530 hn        1 MOL      0.201523
     79 H35        -6.9950   -2.7130    0.9920 h1        1 MOL      0.141858
     80 H36        -6.7120   -1.7400    2.5180 h1        1 MOL      0.141858
     81 N9         -3.9000   -2.5780    1.3640 n         1 MOL     -0.471105
     82 C25        -2.7730   -3.4530    1.0810 c3        1 MOL      0.198696
     83 C26        -1.3800   -2.7900    1.1880 c         1 MOL      0.572432
     84 O13        -1.2360   -1.6160    0.8030 o         1 MOL     -0.630917
     85 C27        -2.9060   -4.1040   -0.3320 c3        1 MOL      0.072202
     86 C28        -4.1470   -4.9310   -0.6050 ca        1 MOL     -0.280249
     87 C29        -4.2920   -6.3090   -0.2160 ca        1 MOL      0.062746
     88 C30        -5.1690   -4.3160   -1.2900 ca        1 MOL      0.062746
     89 C31        -5.4630   -6.9900   -0.6820 ca        1 MOL     -0.398637
     90 C32        -6.3570   -4.9530   -1.6030 ca        1 MOL     -0.398637
     91 C33        -6.5240   -6.2990   -1.2820 ca        1 MOL      0.516485
     92 O14        -7.6260   -7.0080   -1.6790 oh        1 MOL     -0.574213
     93 H37        -3.7840   -1.6510    0.9930 hn        1 MOL      0.172284
     94 H38        -2.6330   -4.1840    1.8780 h1        1 MOL      0.012342
     95 H39        -2.0170   -4.7310   -0.4350 hc        1 MOL      0.009895
     96 H40        -2.7830   -3.3370   -1.0990 hc        1 MOL      0.009895
     97 H41        -3.4880   -6.8280    0.2650 ha        1 MOL      0.095288
     98 H42        -5.1090   -3.2750   -1.5590 ha        1 MOL      0.095288
     99 H43        -5.4690   -8.0580   -0.5350 ha        1 MOL      0.167336
    100 H44        -7.1870   -4.4600   -2.0880 ha        1 MOL      0.167336
    101 H45        -8.1700   -6.6760   -2.3910 ho        1 MOL      0.397842
    102 N10        -0.3570   -3.4930    1.7080 n         1 MOL     -0.514137
    103 C34         1.0430   -3.0190    1.6890 c3        1 MOL      0.044536
    104 C35         1.8280   -3.8150    0.5980 c         1 MOL      0.482801
    105 O15         1.4960   -4.9560    0.4600 o         1 MOL     -0.545817
    106 C36         1.7250   -3.0010    3.0950 c3        1 MOL      0.207530
    107 C37         0.7360   -2.6700    4.2490 c3        1 MOL      0.266689
    108 C38         2.9610   -2.0810    3.0210 c3        1 MOL     -0.654087
    109 C39         1.3520   -3.1040    5.5350 c3        1 MOL     -0.161034
    110 H46        -0.5390   -4.3750    2.1820 hn        1 MOL      0.315191
    111 H47         1.0650   -1.9600    1.4260 h1        1 MOL      0.082102
    112 H48         1.9410   -4.0500    3.2910 hc        1 MOL     -0.033832
    113 H49        -0.2020   -3.2100    4.1320 hc        1 MOL     -0.067238
    114 H50         0.5830   -1.5890    4.1740 hc        1 MOL     -0.067238
    115 H51         2.5860   -1.0840    2.7610 hc        1 MOL      0.152153
    116 H52         3.3900   -1.9850    4.0200 hc        1 MOL      0.152153
    117 H53         3.7580   -2.4450    2.3780 hc        1 MOL      0.152153
    118 H54         2.3920   -2.8010    5.6340 hc        1 MOL      0.028398
    119 H55         0.7410   -2.6740    6.3330 hc        1 MOL      0.028398
    120 H56         1.4080   -4.1870    5.6380 hc        1 MOL      0.028398
    121 N11         2.7580   -3.1890   -0.1540 n         1 MOL     -0.262188
    122 C40         3.6510   -3.8210   -1.1280 c3        1 MOL      0.055393
    123 C41         5.1500   -3.5640   -0.7720 c         1 MOL      0.314009
    124 O16         5.4780   -2.8860    0.1800 o         1 MOL     -0.372589
    125 C42         3.2660   -3.2410   -2.4720 c3        1 MOL     -0.153456
    126 O17         3.4050   -1.7910   -2.5380 oh        1 MOL     -0.514083
    127 H57         2.8590   -2.1880   -0.0860 hn        1 MOL      0.308844
    128 H58         3.4770   -4.8980   -1.1940 h1        1 MOL      0.059776
    129 H59         2.2210   -3.5370   -2.5560 h1        1 MOL      0.110317
    130 H60         3.8810   -3.8110   -3.1790 h1        1 MOL      0.110317
    131 H61         2.6070   -1.4330   -2.1370 ho        1 MOL      0.344125
    132 N12         6.0490   -4.1950   -1.5190 n         1 MOL     -0.274375
    133 C43         7.4650   -4.0670   -1.2530 c3        1 MOL     -0.008838
    134 C44         8.0790   -2.6010   -1.3400 c         1 MOL      0.535924
    135 O18         8.7880   -2.1520   -0.4800 o         1 MOL     -0.504185
    136 C45         8.2560   -4.9970   -2.1830 c3        1 MOL     -0.422091
    137 H62         5.6900   -4.7970   -2.2370 hn        1 MOL      0.268478
    138 H63         7.6090   -4.3710   -0.2140 h1        1 MOL      0.103872
    139 H64         8.2000   -4.7300   -3.2410 hc        1 MOL      0.131083
    140 H65         9.3150   -5.0070   -1.9060 hc        1 MOL      0.131083
    141 H66         7.8550   -5.9930   -2.0450 hc        1 MOL      0.131083
    142 N13         7.5230   -1.7610   -2.2490 n         1 MOL     -0.462484
    143 C46         7.8730   -0.3550   -2.4870 c3        1 MOL      0.230372
    144 C47         7.4040    0.5220   -1.3090 c         1 MOL      0.276086
    145 O19         8.0520    1.3950   -0.7050 o         1 MOL     -0.491600
    146 C48         7.1790   -0.0670   -3.8080 c3        1 MOL     -0.277188
    147 H67         6.8000   -2.1020   -2.8700 hn        1 MOL      0.271717
    148 H68         8.9490   -0.2220   -2.6320 h1        1 MOL      0.066960
    149 H69         7.6360   -0.7880   -4.4900 hc        1 MOL      0.072527
    150 H70         6.1150   -0.2890   -3.7450 hc        1 MOL      0.072527
    151 H71         7.3860    0.9400   -4.1830 hc        1 MOL      0.072527
    152 N14         6.1750    0.2270   -0.8540 n         1 MOL     -0.137324
    153 C49         5.5030    0.8310    0.2680 c3        1 MOL     -0.087680
    154 C50         6.0720    0.3640    1.6390 c         1 MOL      0.387806
    155 O20         5.9180    1.1450    2.6370 o         1 MOL     -0.574408
    156 C51         4.0360    0.3140    0.3950 c3        1 MOL      0.080444
    157 C52         3.1140    1.0000   -0.6380 c3        1 MOL      0.191683
    158 C53         1.6170    0.6570   -0.7110 c         1 MOL      0.584977
    159 O21         0.7010    1.3190   -0.1750 o         1 MOL     -0.718568
    160 O22         1.2650   -0.4650   -1.1890 o         1 MOL     -0.718568
    161 H72         5.6170   -0.4550   -1.3610 hn        1 MOL      0.203806
    162 H73         5.4500    1.9130    0.1940 h1        1 MOL      0.088294
    163 H74         3.6580    0.4000    1.4190 hc        1 MOL      0.029932
    164 H75         4.0420   -0.7330    0.1270 hc        1 MOL      0.029932
    165 H76         3.5600    0.7590   -1.6020 hc        1 MOL     -0.100651
    166 H77         3.2650    2.0760   -0.5330 hc        1 MOL     -0.100651
    167 N15         6.6790   -0.7920    1.7650 n         1 MOL      0.073924
    168 C54         7.4170   -1.2740    2.8700 c3        1 MOL     -0.362646
    169 H78         6.9120   -2.1430    3.2920 h1        1 MOL      0.120063
    170 H79         8.4170   -1.5600    2.5420 h1        1 MOL      0.120063
    171 H80         7.4910   -0.4940    3.6270 h1        1 MOL      0.120063
    172 H81         6.5670   -1.4670    1.0190 hn        1 MOL      0.106622
    173 Ca1        -1.3350    0.1150   -1.1310 Ca        1 MOL      1.798279
    174 O23        -1.1070   -2.1910   -2.3080 oh        1 MOL     -0.872488
    175 H82        -1.2570   -2.1830   -3.2510 ho        1 MOL      0.407755
    176 H83        -1.1210   -3.1230   -2.0720 ho        1 MOL      0.407755
    177 O24        -1.5850    0.1480   -3.8090 oh        1 MOL     -0.872488
    178 H84        -1.7050   -0.3680   -4.6080 ho        1 MOL      0.407755
    179 H85        -1.7260    1.0570   -4.0880 ho        1 MOL      0.407755
@<TRIPOS>BOND
     1    1    2 1   
     2    1    4 1   
     3    1    5 1   
     4    1    6 1   
     5    2    3 2   
     6    2    7 1   
     7    7    8 1   
     8    7   15 1   
     9    8    9 1   
    10    8   11 1   
    11    8   16 1   
    12    9   10 2   
    13    9   19 1   
    14   11   12 1   
    15   11   17 1   
    16   11   18 1   
    17   12   13 1   
    18   12   14 1   
    19   19   20 1   
    20   19   28 1   
    21   20   21 1   
    22   20   23 1   
    23   20   29 1   
    24   21   22 2   
    25   21   41 1   
    26   23   24 1   
    27   23   30 1   
    28   23   31 1   
    29   24   25 1   
    30   24   32 1   
    31   24   33 1   
    32   25   26 1   
    33   25   34 1   
    34   25   35 1   
    35   26   27 1   
    36   26   36 1   
    37   26   37 1   
    38   27   38 1   
    39   27   39 1   
    40   27   40 1   
    41   41   42 1   
    42   41   49 1   
    43   42   43 1   
    44   42   45 1   
    45   42   50 1   
    46   43   44 2   
    47   43   53 1   
    48   45   46 1   
    49   45   51 1   
    50   45   52 1   
    51   46   47 1   
    52   46   48 1   
    53   53   54 1   
    54   53   57 1   
    55   54   55 1   
    56   54   58 1   
    57   54   59 1   
    58   55   56 2   
    59   55   60 1   
    60   60   61 1   
    61   60   68 1   
    62   61   62 1   
    63   61   64 1   
    64   61   69 1   
    65   62   63 2   
    66   62   74 1   
    67   64   65 1   
    68   64   70 1   
    69   64   71 1   
    70   65   66 1   
    71   65   67 2   
    72   66   72 1   
    73   66   73 1   
    74   74   75 1   
    75   74   78 1   
    76   75   76 1   
    77   75   79 1   
    78   75   80 1   
    79   76   77 2   
    80   76   81 1   
    81   81   82 1   
    82   81   93 1   
    83   82   83 1   
    84   82   85 1   
    85   82   94 1   
    86   83   84 2   
    87   83  102 1   
    88   85   86 1   
    89   85   95 1   
    90   85   96 1   
    91   86   87 ar  
    92   86   88 ar  
    93   87   89 ar  
    94   87   97 1   
    95   88   90 ar  
    96   88   98 1   
    97   89   91 ar  
    98   89   99 1   
    99   90   91 ar  
   100   90  100 1   
   101   91   92 1   
   102   92  101 1   
   103  102  103 1   
   104  102  110 1   
   105  103  104 1   
   106  103  106 1   
   107  103  111 1   
   108  104  105 2   
   109  104  121 1   
   110  106  107 1   
   111  106  108 1   
   112  106  112 1   
   113  107  109 1   
   114  107  113 1   
   115  107  114 1   
   116  108  115 1   
   117  108  116 1   
   118  108  117 1   
   119  109  118 1   
   120  109  119 1   
   121  109  120 1   
   122  121  122 1   
   123  121  127 1   
   124  122  123 1   
   125  122  125 1   
   126  122  128 1   
   127  123  124 2   
   128  123  132 1   
   129  125  126 1   
   130  125  129 1   
   131  125  130 1   
   132  126  131 1   
   133  132  133 1   
   134  132  137 1   
   135  133  134 1   
   136  133  136 1   
   137  133  138 1   
   138  134  135 2   
   139  134  142 1   
   140  136  139 1   
   141  136  140 1   
   142  136  141 1   
   143  142  143 1   
   144  142  147 1   
   145  143  144 1   
   146  143  146 1   
   147  143  148 1   
   148  144  145 2   
   149  144  152 1   
   150  146  149 1   
   151  146  150 1   
   152  146  151 1   
   153  152  153 1   
   154  152  161 1   
   155  153  154 1   
   156  153  156 1   
   157  153  162 1   
   158  154  155 2   
   159  154  167 1   
   160  156  157 1   
   161  156  163 1   
   162  156  164 1   
   163  157  158 1   
   164  157  165 1   
   165  157  166 1   
   166  158  159 1   
   167  158  160 1   
   168  167  168 1   
   169  167  172 1   
   170  168  169 1   
   171  168  170 1   
   172  168  171 1   
   173  174  175 1   
   174  174  176 1   
   175  177  178 1   
   176  177  179 1   
@<TRIPOS>SUBSTRUCTURE
     1 MOL         1 TEMP              0 ****  ****    0 ROOT
