@<TRIPOS>MOLECULE
MOL
  179   176     1     0     0
SMALL
resp


@<TRIPOS>ATOM
      1 C1          0.9260    3.9490    5.9900 c3        1 MOL     -0.269461
      2 C2          0.6930    3.4020    4.6010 c         1 MOL      0.722217
      3 O1          1.5510    3.5600    3.6860 o         1 MOL     -0.601964
      4 H1          0.9350    5.0380    5.9530 hc        1 MOL      0.070557
      5 H2          0.1280    3.6150    6.6520 hc        1 MOL      0.070557
      6 H3          1.8840    3.5920    6.3660 hc        1 MOL      0.070557
      7 N1         -0.4960    2.8290    4.3600 n         1 MOL     -0.685647
      8 C3         -0.9900    2.5240    3.0490 c3        1 MOL      0.000171
      9 C4         -1.3010    3.7290    2.2280 c         1 MOL      0.892244
     10 O2         -2.0080    4.6410    2.6800 o         1 MOL     -0.619477
     11 C5         -2.2470    1.6520    3.2390 c3        1 MOL     -0.198724
     12 C6         -2.9910    1.1760    1.9470 c         1 MOL      0.751106
     13 O3         -2.5730    1.5080    0.8320 o         1 MOL     -0.712678
     14 O4         -4.0620    0.5960    2.0270 o         1 MOL     -0.712678
     15 H4         -1.0900    2.6990    5.1660 hn        1 MOL      0.369708
     16 H5         -0.3130    1.8650    2.4860 h1        1 MOL      0.046323
     17 H6         -2.9420    2.2620    3.8100 hc        1 MOL      0.048134
     18 H7         -1.9930    0.8280    3.9170 hc        1 MOL      0.048134
     19 N2         -0.6890    3.7850    1.0330 n         1 MOL     -0.644955
     20 C7         -0.7060    4.9750    0.0650 c3        1 MOL     -0.085862
     21 C8         -1.8870    5.0940   -0.8310 c         1 MOL      0.584292
     22 O5         -2.0430    6.2090   -1.3510 o         1 MOL     -0.592692
     23 C9          0.4480    4.7870   -0.8610 c3        1 MOL      0.298373
     24 C10         1.1410    6.0970   -1.1730 c3        1 MOL     -0.339696
     25 C11         2.5330    5.9440   -1.8820 c3        1 MOL      0.385863
     26 C12         3.2050    7.2330   -2.2020 c3        1 MOL      0.013856
     27 N3          4.6580    6.9080   -2.6640 n4        1 MOL     -0.335723
     28 H8         -0.2420    2.9430    0.6940 hn        1 MOL      0.320393
     29 H9         -0.6420    5.8790    0.6770 h1        1 MOL      0.126474
     30 H10         0.2600    4.1540   -1.7340 hc        1 MOL      0.002216
     31 H11         1.1860    4.1500   -0.3670 hc        1 MOL      0.002216
     32 H12         1.3440    6.6980   -0.2920 hc        1 MOL      0.068840
     33 H13         0.4710    6.5290   -1.9250 hc        1 MOL      0.068840
     34 H14         2.4240    5.3940   -2.8270 hc        1 MOL     -0.087455
     35 H15         3.2500    5.3440   -1.3240 hc        1 MOL     -0.087455
     36 H16         3.2570    7.8270   -1.2950 hx        1 MOL      0.075413
     37 H17         2.7020    7.7780   -2.9920 hx        1 MOL      0.075413
     38 H18         5.2090    7.7420   -2.8090 hn        1 MOL      0.312261
     39 H19         5.2540    6.3310   -2.0820 hn        1 MOL      0.312261
     40 H20         4.6140    6.4440   -3.5670 hn        1 MOL      0.312261
     41 N4         -2.7230    4.0560   -1.0810 n         1 MOL     -0.472218
     42 C13        -3.9500    4.1130   -1.9250 c3        1 MOL      0.100471
     43 C14        -5.2800    3.7410   -1.3080 c         1 MOL      0.489777
     44 O6         -6.2850    4.1250   -1.8710 o         1 MOL     -0.549721
     45 C15        -3.7010    3.4860   -3.3330 c3        1 MOL     -0.342340
     46 C16        -3.5480    1.9410   -3.2340 c         1 MOL      0.789910
     47 O7         -3.5290    1.2900   -4.3340 o         1 MOL     -0.715747
     48 O8         -3.2610    1.4170   -2.1120 o         1 MOL     -0.715747
     49 H21        -2.3900    3.2010   -0.6610 hn        1 MOL      0.241307
     50 H22        -4.1920    5.1660   -2.0410 h1        1 MOL      0.093126
     51 H23        -2.8520    3.7600   -3.9590 hc        1 MOL      0.090184
     52 H24        -4.6020    3.6870   -3.9120 hc        1 MOL      0.090184
     53 N5         -5.2310    2.9700   -0.2320 n         1 MOL     -0.165952
     54 C17        -6.3250    2.6220    0.6230 c3        1 MOL     -0.342301
     55 C18        -6.7920    1.1960    0.3120 c         1 MOL      0.628230
     56 O9         -7.8160    0.8410    0.8490 o         1 MOL     -0.583463
     57 H25        -4.3420    2.6560    0.1350 hn        1 MOL      0.176183
     58 H26        -7.1690    3.3170    0.6350 h1        1 MOL      0.160803
     59 H27        -5.8560    2.6660    1.5990 h1        1 MOL      0.160803
     60 N6         -6.2040    0.4710   -0.6420 n         1 MOL     -0.346623
     61 C19        -6.6590   -0.8420   -1.0020 c3        1 MOL      0.084946
     62 C20        -6.5870   -1.8490    0.1700 c         1 MOL      0.355136
     63 O10        -7.1810   -2.9430    0.0480 o         1 MOL     -0.537298
     64 C21        -5.9950   -1.4390   -2.2060 c3        1 MOL     -0.219034
     65 C22        -4.5480   -1.6310   -2.0730 c         1 MOL      0.642661
     66 N7         -3.8520   -1.9060   -3.2050 n         1 MOL     -0.729104
     67 O11        -3.8370   -1.3040   -1.0970 o         1 MOL     -0.555465
     68 H28        -5.4200    0.9030   -1.1010 hn        1 MOL      0.194065
     69 H29        -7.6840   -0.7970   -1.3690 h1        1 MOL      0.088632
     70 H30        -6.0710   -0.7720   -3.0560 hc        1 MOL      0.092553
     71 H31        -6.5210   -2.3610   -2.4560 hc        1 MOL      0.092553
     72 H32        -4.4030   -1.9240   -4.0540 hn        1 MOL      0.320733
     73 H33        -2.8500   -1.8200   -3.2710 hn        1 MOL      0.320733
     74 N8         -5.8890   -1.5200    1.2820 n         1 MOL     -0.124416
     75 C23        -5.8770   -2.3880    2.4810 c3        1 MOL     -0.157252
     76 C24        -4.6550   -3.2730    2.6770 c         1 MOL      0.495900
     77 O12        -4.6120   -4.0380    3.6410 o         1 MOL     -0.585180
     78 H34        -5.4650   -0.6070    1.3700 hn        1 MOL      0.239058
     79 H35        -6.7710   -3.0170    2.5200 h1        1 MOL      0.107719
     80 H36        -6.0240   -1.7590    3.3550 h1        1 MOL      0.107719
     81 N9         -3.7170   -3.2290    1.8260 n         1 MOL     -0.213458
     82 C25        -2.4830   -3.9410    1.9360 c3        1 MOL      0.134287
     83 C26        -1.3150   -3.0580    1.5550 c         1 MOL      0.779972
     84 O13        -1.4320   -2.0220    0.8840 o         1 MOL     -0.701487
     85 C27        -2.4640   -5.3260    1.1600 c3        1 MOL     -0.251584
     86 C28        -2.3110   -5.3330   -0.3410 ca        1 MOL     -0.005373
     87 C29        -1.0590   -5.0830   -0.9370 ca        1 MOL     -0.056001
     88 C30        -3.4390   -5.4840   -1.1690 ca        1 MOL     -0.056001
     89 C31        -0.8710   -5.0710   -2.3600 ca        1 MOL     -0.337590
     90 C32        -3.3400   -5.3770   -2.5510 ca        1 MOL     -0.337590
     91 C33        -2.0870   -5.1080   -3.1260 ca        1 MOL      0.411957
     92 O14        -1.9190   -4.9440   -4.4300 oh        1 MOL     -0.562389
     93 H37        -3.6910   -2.4660    1.1620 hn        1 MOL      0.127778
     94 H38        -2.3400   -4.1820    2.9840 h1        1 MOL      0.038449
     95 H39        -3.3830   -5.8550    1.3980 hc        1 MOL      0.093172
     96 H40        -1.6620   -5.8710    1.6510 hc        1 MOL      0.093172
     97 H41        -0.1810   -5.0410   -0.3120 ha        1 MOL      0.133491
     98 H42        -4.3840   -5.5290   -0.6480 ha        1 MOL      0.133491
     99 H43         0.1120   -4.8570   -2.7610 ha        1 MOL      0.154196
    100 H44        -4.2080   -5.4780   -3.1880 ha        1 MOL      0.154196
    101 H45        -2.7210   -5.1040   -4.9360 ho        1 MOL      0.416231
    102 N10        -0.1750   -3.5260    2.0720 n         1 MOL     -0.779274
    103 C34         1.1120   -2.9060    1.8940 c3        1 MOL      0.088485
    104 C35         2.0340   -3.8280    1.0210 c         1 MOL      0.520074
    105 O15         1.9470   -5.0210    1.0440 o         1 MOL     -0.527152
    106 C36         1.7690   -2.8180    3.3140 c3        1 MOL      0.073224
    107 C37         0.8900   -2.1010    4.4070 c3        1 MOL     -0.160005
    108 C38         3.1430   -2.1660    3.3540 c3        1 MOL     -0.213718
    109 C39         0.2640   -0.7170    4.0480 c3        1 MOL     -0.085886
    110 H46        -0.2120   -4.3990    2.5770 hn        1 MOL      0.392294
    111 H47         1.0550   -1.8900    1.5210 h1        1 MOL      0.117965
    112 H48         1.9970   -3.8330    3.6380 hc        1 MOL      0.022744
    113 H49         1.4380   -2.0030    5.3560 hc        1 MOL      0.059118
    114 H50         0.0500   -2.7410    4.6870 hc        1 MOL      0.059118
    115 H51         3.7670   -2.6900    2.6380 hc        1 MOL      0.039120
    116 H52         3.1830   -1.1510    2.9570 hc        1 MOL      0.039120
    117 H53         3.5360   -2.1120    4.3730 hc        1 MOL      0.039120
    118 H54         1.0930   -0.0210    3.9100 hc        1 MOL      0.051883
    119 H55        -0.5060   -0.7490    3.2820 hc        1 MOL      0.051883
    120 H56        -0.3400   -0.4560    4.9140 hc        1 MOL      0.051883
    121 N11         2.9080   -3.1420    0.2190 n         1 MOL     -0.252876
    122 C40         3.9930   -3.6370   -0.5790 c3        1 MOL      0.084799
    123 C41         5.2870   -2.9410   -0.2060 c         1 MOL      0.456331
    124 O16         5.3530   -1.9690    0.5860 o         1 MOL     -0.426110
    125 C42         3.6630   -3.3210   -2.0380 c3        1 MOL     -0.166279
    126 O17         3.8670   -1.9530   -2.3960 oh        1 MOL     -0.474677
    127 H57         2.7750   -2.1470    0.1430 hn        1 MOL      0.259438
    128 H58         4.0830   -4.7140   -0.4810 h1        1 MOL      0.063319
    129 H59         2.6240   -3.6320   -2.1850 h1        1 MOL      0.096132
    130 H60         4.3970   -3.8320   -2.6550 h1        1 MOL      0.096132
    131 H61         4.0450   -1.8390   -3.3320 ho        1 MOL      0.377273
    132 N12         6.3630   -3.5290   -0.7490 n         1 MOL     -0.507801
    133 C43         7.7770   -3.1410   -0.5500 c3        1 MOL      0.211674
    134 C44         7.9900   -1.6340   -0.8950 c         1 MOL      0.385141
    135 O18         8.7140   -0.9540   -0.1930 o         1 MOL     -0.478525
    136 C45         8.7270   -4.0460   -1.3030 c3        1 MOL     -0.266559
    137 H62         6.1150   -4.2980   -1.3630 hn        1 MOL      0.300394
    138 H63         8.0800   -3.2480    0.5000 h1        1 MOL      0.059986
    139 H64         9.7020   -3.7050   -0.9570 hc        1 MOL      0.082892
    140 H65         8.6020   -5.1220   -1.1650 hc        1 MOL      0.082892
    141 H66         8.6450   -3.7990   -2.3700 hc        1 MOL      0.082892
    142 N13         7.2750   -1.1380   -1.8990 n         1 MOL     -0.267488
    143 C46         7.4250    0.3090   -2.2330 c3        1 MOL      0.004347
    144 C47         6.8610    1.2010   -1.1860 c         1 MOL      0.392474
    145 O19         7.4420    2.3250   -0.9750 o         1 MOL     -0.510743
    146 C48         6.7170    0.6060   -3.5660 c3        1 MOL     -0.339953
    147 H67         6.7510   -1.8120   -2.4420 hn        1 MOL      0.222190
    148 H68         8.4690    0.5950   -2.3650 h1        1 MOL      0.128251
    149 H69         5.6460    0.3910   -3.6370 hc        1 MOL      0.097031
    150 H70         6.8070    1.6600   -3.8370 hc        1 MOL      0.097031
    151 H71         7.2410    0.0230   -4.3190 hc        1 MOL      0.097031
    152 N14         5.6400    0.9360   -0.5980 n         1 MOL     -0.126877
    153 C49         4.9400    1.6930    0.3710 c3        1 MOL     -0.219115
    154 C50         5.6570    1.5740    1.6810 c         1 MOL      0.559607
    155 O20         5.8810    2.6750    2.2350 o         1 MOL     -0.565004
    156 C51         3.5250    1.1010    0.6450 c3        1 MOL      0.228706
    157 C52         2.6510    1.2220   -0.5900 c3        1 MOL      0.138692
    158 C53         1.2870    0.6020   -0.3790 c         1 MOL      0.833892
    159 O21         0.3740    1.3450    0.0780 o         1 MOL     -0.840800
    160 O22         0.9880   -0.5640   -0.7410 o         1 MOL     -0.840800
    161 H72         5.1280    0.1320   -0.9500 hn        1 MOL      0.191606
    162 H73         4.9090    2.7430    0.0610 h1        1 MOL      0.117496
    163 H74         3.0460    1.5700    1.5140 hc        1 MOL     -0.023366
    164 H75         3.5090    0.0380    0.8820 hc        1 MOL     -0.023366
    165 H76         3.0590    0.6980   -1.4510 hc        1 MOL     -0.137717
    166 H77         2.5210    2.2770   -0.8110 hc        1 MOL     -0.137717
    167 N15         6.1080    0.4190    2.1540 n         1 MOL     -0.269296
    168 C54         7.1380    0.4210    3.2260 c3        1 MOL     -0.262256
    169 H78         7.2900    1.4400    3.5810 h1        1 MOL      0.120823
    170 H79         6.8030   -0.2060    4.0540 h1        1 MOL      0.120823
    171 H80         8.0760    0.0300    2.8310 h1        1 MOL      0.120823
    172 H81         5.9500   -0.3740    1.5580 hn        1 MOL      0.205025
    173 Ca1        -1.5330   -0.0560   -0.9660 Ca        1 MOL      1.782166
    174 O23        -1.0280   -2.0500   -2.6820 oh        1 MOL     -0.863453
    175 H82        -0.2570   -1.9480   -3.2380 ho        1 MOL      0.420566
    176 H83        -1.2140   -2.9880   -2.7010 ho        1 MOL      0.420566
    177 O24        -0.2880    0.9800   -3.2090 oh        1 MOL     -0.863453
    178 H84        -0.6010    0.9410   -4.1200 ho        1 MOL      0.420566
    179 H85         0.6620    0.9810   -3.2900 ho        1 MOL      0.420566
@<TRIPOS>BOND
     1    1    2 1   
     2    1    4 1   
     3    1    5 1   
     4    1    6 1   
     5    2    3 2   
     6    2    7 1   
     7    7    8 1   
     8    7   15 1   
     9    8    9 1   
    10    8   11 1   
    11    8   16 1   
    12    9   10 2   
    13    9   19 1   
    14   11   12 1   
    15   11   17 1   
    16   11   18 1   
    17   12   13 1   
    18   12   14 1   
    19   19   20 1   
    20   19   28 1   
    21   20   21 1   
    22   20   23 1   
    23   20   29 1   
    24   21   22 2   
    25   21   41 1   
    26   23   24 1   
    27   23   30 1   
    28   23   31 1   
    29   24   25 1   
    30   24   32 1   
    31   24   33 1   
    32   25   26 1   
    33   25   34 1   
    34   25   35 1   
    35   26   27 1   
    36   26   36 1   
    37   26   37 1   
    38   27   38 1   
    39   27   39 1   
    40   27   40 1   
    41   41   42 1   
    42   41   49 1   
    43   42   43 1   
    44   42   45 1   
    45   42   50 1   
    46   43   44 2   
    47   43   53 1   
    48   45   46 1   
    49   45   51 1   
    50   45   52 1   
    51   46   47 1   
    52   46   48 1   
    53   53   54 1   
    54   53   57 1   
    55   54   55 1   
    56   54   58 1   
    57   54   59 1   
    58   55   56 2   
    59   55   60 1   
    60   60   61 1   
    61   60   68 1   
    62   61   62 1   
    63   61   64 1   
    64   61   69 1   
    65   62   63 2   
    66   62   74 1   
    67   64   65 1   
    68   64   70 1   
    69   64   71 1   
    70   65   66 1   
    71   65   67 2   
    72   66   72 1   
    73   66   73 1   
    74   74   75 1   
    75   74   78 1   
    76   75   76 1   
    77   75   79 1   
    78   75   80 1   
    79   76   77 2   
    80   76   81 1   
    81   81   82 1   
    82   81   93 1   
    83   82   83 1   
    84   82   85 1   
    85   82   94 1   
    86   83   84 2   
    87   83  102 1   
    88   85   86 1   
    89   85   95 1   
    90   85   96 1   
    91   86   87 ar  
    92   86   88 ar  
    93   87   89 ar  
    94   87   97 1   
    95   88   90 ar  
    96   88   98 1   
    97   89   91 ar  
    98   89   99 1   
    99   90   91 ar  
   100   90  100 1   
   101   91   92 1   
   102   92  101 1   
   103  102  103 1   
   104  102  110 1   
   105  103  104 1   
   106  103  106 1   
   107  103  111 1   
   108  104  105 2   
   109  104  121 1   
   110  106  107 1   
   111  106  108 1   
   112  106  112 1   
   113  107  109 1   
   114  107  113 1   
   115  107  114 1   
   116  108  115 1   
   117  108  116 1   
   118  108  117 1   
   119  109  118 1   
   120  109  119 1   
   121  109  120 1   
   122  121  122 1   
   123  121  127 1   
   124  122  123 1   
   125  122  125 1   
   126  122  128 1   
   127  123  124 2   
   128  123  132 1   
   129  125  126 1   
   130  125  129 1   
   131  125  130 1   
   132  126  131 1   
   133  132  133 1   
   134  132  137 1   
   135  133  134 1   
   136  133  136 1   
   137  133  138 1   
   138  134  135 2   
   139  134  142 1   
   140  136  139 1   
   141  136  140 1   
   142  136  141 1   
   143  142  143 1   
   144  142  147 1   
   145  143  144 1   
   146  143  146 1   
   147  143  148 1   
   148  144  145 2   
   149  144  152 1   
   150  146  149 1   
   151  146  150 1   
   152  146  151 1   
   153  152  153 1   
   154  152  161 1   
   155  153  154 1   
   156  153  156 1   
   157  153  162 1   
   158  154  155 2   
   159  154  167 1   
   160  156  157 1   
   161  156  163 1   
   162  156  164 1   
   163  157  158 1   
   164  157  165 1   
   165  157  166 1   
   166  158  159 1   
   167  158  160 1   
   168  167  168 1   
   169  167  172 1   
   170  168  169 1   
   171  168  170 1   
   172  168  171 1   
   173  174  175 1   
   174  174  176 1   
   175  177  178 1   
   176  177  179 1   
@<TRIPOS>SUBSTRUCTURE
     1 MOL         1 TEMP              0 ****  ****    0 ROOT
