@<TRIPOS>MOLECULE
MOL
  169   169     1     0     0
SMALL
resp


@<TRIPOS>ATOM
      1 C1          0.5700   -4.4580    5.2500 c3        1 MOL     -0.313922
      2 C2          0.9540   -3.7670    3.9490 c         1 MOL      0.662070
      3 O1          0.3470   -4.1630    2.9490 o         1 MOL     -0.539674
      4 H1         -0.2270   -5.1750    5.0580 hc        1 MOL      0.072860
      5 H2          1.4380   -4.9790    5.6550 hc        1 MOL      0.072860
      6 H3          0.2240   -3.7140    5.9680 hc        1 MOL      0.072860
      7 N1          2.0240   -2.9450    3.9630 n         1 MOL     -0.524958
      8 C3          2.6170   -2.3850    2.7530 c3        1 MOL      0.095758
      9 C4          3.3940   -3.4560    1.8930 c         1 MOL      0.618209
     10 O2          4.3990   -4.0100    2.3400 o         1 MOL     -0.581602
     11 C5          3.5930   -1.1940    3.0360 c3        1 MOL     -0.269506
     12 C6          4.1530   -0.4570    1.8800 c         1 MOL      0.810866
     13 O3          5.3460   -0.6070    1.6150 o         1 MOL     -0.727463
     14 O4          3.3960    0.1570    1.1890 o         1 MOL     -0.727463
     15 H4          2.3900   -2.6370    4.8490 hn        1 MOL      0.299272
     16 H5          1.7530   -2.1210    2.1600 h1        1 MOL      0.049064
     17 H6          4.3350   -1.4380    3.7880 hc        1 MOL      0.054619
     18 H7          2.9680   -0.3930    3.4310 hc        1 MOL      0.054619
     19 N2          2.7770   -3.9650    0.8360 n         1 MOL     -0.416725
     20 C7          3.1870   -5.1600    0.0750 c3        1 MOL      0.280221
     21 C8          4.0300   -4.9400   -1.1940 c         1 MOL      0.258442
     22 O5          4.8750   -5.7940   -1.5310 o         1 MOL     -0.533672
     23 C9          1.8930   -5.8300   -0.3450 c3        1 MOL     -0.236514
     24 H8          1.9010   -3.5880    0.5060 hn        1 MOL      0.228992
     25 H9          3.7330   -5.8630    0.7010 h1        1 MOL      0.029166
     26 H10         2.1040   -6.7600   -0.8610 hc        1 MOL      0.060614
     27 H11         1.2540   -6.0050    0.5220 hc        1 MOL      0.060614
     28 H12         1.3830   -5.1850   -1.0540 hc        1 MOL      0.060614
     29 N3          3.8870   -3.8080   -1.8970 n         1 MOL     -0.149311
     30 C10         4.7560   -3.3830   -3.0440 c3        1 MOL      0.003520
     31 C11         6.1320   -2.9100   -2.5880 c         1 MOL      0.500424
     32 O6          7.1290   -3.1150   -3.3240 o         1 MOL     -0.583385
     33 C12         3.9820   -2.2660   -3.8310 c3        1 MOL     -0.351554
     34 C13         3.4450   -1.1770   -2.8890 c         1 MOL      0.948151
     35 O7          3.8780   -1.0400   -1.7030 o         1 MOL     -0.771885
     36 O8          2.5180   -0.4650   -3.2550 o         1 MOL     -0.771885
     37 H13         3.1410   -3.2250   -1.5420 hn        1 MOL      0.167744
     38 H14         4.9090   -4.2360   -3.7020 h1        1 MOL      0.093181
     39 H15         3.1660   -2.8150   -4.2960 hc        1 MOL      0.091571
     40 H16         4.5750   -1.8160   -4.6230 hc        1 MOL      0.091571
     41 N4          6.2500   -2.4000   -1.3260 n         1 MOL     -0.236071
     42 C14         7.4290   -1.7850   -0.6920 c3        1 MOL     -0.188115
     43 C15         7.5010   -0.2460   -0.7880 c         1 MOL      0.580303
     44 O9          8.4950    0.3310   -0.4030 o         1 MOL     -0.608749
     45 H17         5.3640   -2.1660   -0.8910 hn        1 MOL      0.207991
     46 H18         8.3390   -2.2530   -1.0650 h1        1 MOL      0.120057
     47 H19         7.4380   -2.0240    0.3710 h1        1 MOL      0.120057
     48 N5          6.4670    0.4270   -1.2840 n         1 MOL     -0.337894
     49 C16         6.4770    1.9190   -1.5000 c3        1 MOL      0.010117
     50 C17         6.2160    2.7970   -0.2670 c         1 MOL      0.452092
     51 O10         6.1160    4.0070   -0.4060 o         1 MOL     -0.546927
     52 C18         5.6220    2.2450   -2.6650 c3        1 MOL     -0.224222
     53 C19         4.1960    2.5760   -2.3340 c         1 MOL      0.549992
     54 N6          3.3990    2.9900   -3.2750 n         1 MOL     -0.694648
     55 O11         3.6840    2.3960   -1.2300 o         1 MOL     -0.454358
     56 H20         5.6040   -0.0110   -1.5580 hn        1 MOL      0.174640
     57 H21         7.4760    2.2180   -1.7980 h1        1 MOL      0.110702
     58 H22         5.5110    1.3450   -3.2700 hc        1 MOL      0.089721
     59 H23         6.0260    3.1140   -3.1930 hc        1 MOL      0.089721
     60 H24         3.6860    3.1820   -4.2250 hn        1 MOL      0.359448
     61 H25         2.5570    3.3640   -2.8600 hn        1 MOL      0.359448
     62 N7          6.0110    2.1830    0.9220 n         1 MOL     -0.308474
     63 C20         5.8220    2.9050    2.1420 c3        1 MOL     -0.082320
     64 C21         4.5600    3.7940    2.1720 c         1 MOL      0.509028
     65 O12         4.5480    4.6250    3.0370 o         1 MOL     -0.591541
     66 H26         6.2110    1.1890    0.8950 hn        1 MOL      0.327033
     67 H27         6.6690    3.5590    2.3680 h1        1 MOL      0.085198
     68 H28         5.8360    2.2350    3.0080 h1        1 MOL      0.085198
     69 N8          3.6370    3.6540    1.2470 n         1 MOL     -0.111101
     70 C22         2.4430    4.4860    1.2130 c3        1 MOL     -0.133163
     71 C23         1.1940    3.7080    0.8830 c         1 MOL      0.793222
     72 O13         1.2770    2.8020    0.0280 o         1 MOL     -0.705704
     73 C24         2.6430    5.4260   -0.0030 c3        1 MOL      0.480042
     74 C25         1.5980    6.5410    0.0300 c3        1 MOL     -0.372948
     75 O14         3.8990    6.0400    0.1550 oh        1 MOL     -0.646123
     76 H29         3.7020    2.8880    0.6020 hn        1 MOL     -0.037722
     77 H30         2.2620    5.0480    2.1310 h1        1 MOL      0.073763
     78 H31         2.5770    4.9110   -0.9640 h1        1 MOL     -0.025841
     79 H32         4.4910    5.3120    0.3520 ho        1 MOL      0.399977
     80 H33         0.5760    6.1890   -0.0960 hc        1 MOL      0.081371
     81 H34         1.7480    7.0510    0.9830 hc        1 MOL      0.081371
     82 H35         1.8430    7.3260   -0.6830 hc        1 MOL      0.081371
     83 N9          0.1260    3.8630    1.7030 n         1 MOL     -0.717017
     84 C26        -0.9950    2.9180    1.6950 c3        1 MOL      0.346650
     85 C27        -1.7650    3.0570    0.4430 c         1 MOL      0.587612
     86 O15        -2.1350    4.1480    0.0860 o         1 MOL     -0.633179
     87 C28        -1.8860    3.1080    2.9670 c3        1 MOL     -0.073898
     88 C29        -1.2570    2.5860    4.2740 c3        1 MOL     -0.059013
     89 C30        -3.2670    2.3340    2.8720 c3        1 MOL     -0.200065
     90 C31        -0.6960    1.1440    4.3160 c3        1 MOL     -0.019051
     91 H36         0.1640    4.6260    2.3620 hn        1 MOL      0.325310
     92 H37        -0.6180    1.8930    1.6600 h1        1 MOL      0.023741
     93 H38        -2.1940    4.1540    2.9610 hc        1 MOL      0.026546
     94 H39        -1.9090    2.6580    5.1350 hc        1 MOL      0.023541
     95 H40        -0.4260    3.2420    4.5320 hc        1 MOL      0.023541
     96 H41        -3.8550    2.8210    2.0820 hc        1 MOL      0.046850
     97 H42        -3.0670    1.2840    2.6720 hc        1 MOL      0.046850
     98 H43        -3.8060    2.3260    3.8180 hc        1 MOL      0.046850
     99 H44         0.3400    1.0040    4.0160 hc        1 MOL      0.005364
    100 H45        -0.7690    0.8530    5.3680 hc        1 MOL      0.005364
    101 H46        -1.2690    0.3890    3.7780 hc        1 MOL      0.005364
    102 N10        -2.0030    1.9790   -0.1810 n         1 MOL     -0.190139
    103 C32        -3.0740    1.8480   -1.2130 c3        1 MOL      0.066348
    104 C33        -4.4350    1.4220   -0.6130 c         1 MOL      0.291371
    105 O16        -4.4390    0.5820    0.2790 o         1 MOL     -0.288375
    106 C34        -2.5080    0.8990   -2.2550 c3        1 MOL     -0.194822
    107 C35        -1.1470    1.2190   -2.7810 c         1 MOL      0.658467
    108 O17        -1.0110    2.1560   -3.6070 o         1 MOL     -0.681047
    109 O18        -0.1020    0.6860   -2.3230 o         1 MOL     -0.681047
    110 H47        -1.6460    1.1360    0.2530 hn        1 MOL      0.110522
    111 H48        -3.2370    2.7660   -1.7910 h1        1 MOL      0.060310
    112 H49        -3.2080    0.8440   -3.0870 hc        1 MOL      0.047786
    113 H50        -2.4100   -0.0520   -1.7390 hc        1 MOL      0.047786
    114 N11        -5.5710    1.8580   -1.1070 n         1 MOL     -0.455158
    115 C36        -6.9050    1.2820   -0.6980 c3        1 MOL      0.276092
    116 C37        -6.9380   -0.2700   -0.6160 c         1 MOL      0.334720
    117 O19        -7.3330   -0.8050    0.4690 o         1 MOL     -0.501409
    118 C38        -7.9850    1.9180   -1.6830 c3        1 MOL     -0.168971
    119 C39        -9.4330    1.5210   -1.4400 ca        1 MOL      0.029408
    120 C40        -9.8290    0.3350   -2.0980 ca        1 MOL     -0.129083
    121 C41       -10.2140    2.1500   -0.4800 ca        1 MOL     -0.129083
    122 C42       -11.1430   -0.1180   -1.8270 ca        1 MOL     -0.122528
    123 C43       -11.5020    1.6440   -0.1520 ca        1 MOL     -0.122528
    124 C44       -11.9730    0.4850   -0.8420 ca        1 MOL     -0.114009
    125 H51        -5.5280    2.6270   -1.7580 hn        1 MOL      0.287612
    126 H52        -7.0040    1.5850    0.3450 h1        1 MOL      0.031661
    127 H53        -7.7580    1.6380   -2.7150 hc        1 MOL      0.058095
    128 H54        -7.8870    2.9880   -1.5340 hc        1 MOL      0.058095
    129 H55        -9.2180   -0.1600   -2.8380 ha        1 MOL      0.115474
    130 H56        -9.9120    3.0960   -0.0600 ha        1 MOL      0.115474
    131 H57       -11.4720   -1.0290   -2.3010 ha        1 MOL      0.112859
    132 H58       -12.1650    2.1690    0.5180 ha        1 MOL      0.112859
    133 H59       -12.9620    0.1550   -0.5870 ha        1 MOL      0.109822
    134 N12        -6.4030   -0.9720   -1.6020 n         1 MOL     -0.071533
    135 C45        -6.2410   -2.4740   -1.5980 c3        1 MOL      0.115922
    136 C46        -5.4820   -3.0360   -0.3900 c         1 MOL      0.174758
    137 O20        -5.7830   -4.1380    0.1050 o         1 MOL     -0.510988
    138 C47        -5.5050   -2.8230   -2.8560 c3        1 MOL     -0.132004
    139 C48        -5.0930   -1.5910   -3.6490 c3        1 MOL      0.023822
    140 C49        -6.0160   -0.5110   -3.0100 c3        1 MOL     -0.026594
    141 H60        -7.2560   -2.8630   -1.6610 h1        1 MOL      0.058027
    142 H61        -4.5370   -3.2650   -2.6190 hc        1 MOL      0.045908
    143 H62        -6.1850   -3.4030   -3.4720 hc        1 MOL      0.045908
    144 H63        -4.0980   -1.2600   -3.3690 hc        1 MOL      0.031488
    145 H64        -5.1120   -1.6680   -4.7470 hc        1 MOL      0.031488
    146 H65        -5.4460    0.4090   -3.0700 h1        1 MOL      0.025082
    147 H66        -6.9070   -0.3430   -3.6020 h1        1 MOL      0.025082
    148 N13        -4.5040   -2.3670    0.1240 n         1 MOL      0.093423
    149 C50        -3.7730   -2.7020    1.3770 c3        1 MOL     -0.211049
    150 C51        -4.5950   -2.2650    2.6190 c         1 MOL      0.485345
    151 O21        -4.4850   -2.9280    3.6620 o         1 MOL     -0.555148
    152 C52        -2.3400   -2.0380    1.4360 c3        1 MOL      0.079891
    153 C53        -1.4650   -2.4240    0.2570 c3        1 MOL     -0.131406
    154 C54        -0.1560   -1.6370    0.0500 c         1 MOL      0.726429
    155 O22         0.7850   -1.9680   -0.7040 o         1 MOL     -0.763185
    156 O23         0.0000   -0.4920    0.5630 o         1 MOL     -0.763185
    157 H67        -4.3620   -1.4400   -0.2410 hn        1 MOL      0.090016
    158 H68        -3.7030   -3.7830    1.4590 h1        1 MOL      0.131213
    159 H69        -1.9220   -2.2970    2.4110 hc        1 MOL      0.025518
    160 H70        -2.4930   -0.9600    1.5090 hc        1 MOL      0.025518
    161 H71        -2.0440   -2.2780   -0.6460 hc        1 MOL      0.033854
    162 H72        -1.3070   -3.4960    0.3750 hc        1 MOL      0.033854
    163 N14        -5.3220   -1.1120    2.5350 n         1 MOL     -0.102922
    164 C55        -6.1700   -0.6470    3.6020 c3        1 MOL     -0.179372
    165 H73        -6.2660   -1.4290    4.3560 h1        1 MOL      0.069765
    166 H74        -5.7320    0.2420    4.0540 h1        1 MOL      0.069765
    167 H75        -7.1560   -0.4060    3.2030 h1        1 MOL      0.069765
    168 H76        -5.2290   -0.5220    1.7150 hn        1 MOL      0.106772
    169 Ca1         1.9120    0.4210   -0.8510 Ca        1 MOL      1.716544
@<TRIPOS>BOND
     1    1    2 1   
     2    1    4 1   
     3    1    5 1   
     4    1    6 1   
     5    2    3 2   
     6    2    7 1   
     7    7    8 1   
     8    7   15 1   
     9    8    9 1   
    10    8   11 1   
    11    8   16 1   
    12    9   10 2   
    13    9   19 1   
    14   11   12 1   
    15   11   17 1   
    16   11   18 1   
    17   12   13 1   
    18   12   14 1   
    19   19   20 1   
    20   19   24 1   
    21   20   21 1   
    22   20   23 1   
    23   20   25 1   
    24   21   22 2   
    25   21   29 1   
    26   23   26 1   
    27   23   27 1   
    28   23   28 1   
    29   29   30 1   
    30   29   37 1   
    31   30   31 1   
    32   30   33 1   
    33   30   38 1   
    34   31   32 2   
    35   31   41 1   
    36   33   34 1   
    37   33   39 1   
    38   33   40 1   
    39   34   35 1   
    40   34   36 1   
    41   41   42 1   
    42   41   45 1   
    43   42   43 1   
    44   42   46 1   
    45   42   47 1   
    46   43   44 2   
    47   43   48 1   
    48   48   49 1   
    49   48   56 1   
    50   49   50 1   
    51   49   52 1   
    52   49   57 1   
    53   50   51 2   
    54   50   62 1   
    55   52   53 1   
    56   52   58 1   
    57   52   59 1   
    58   53   54 1   
    59   53   55 2   
    60   54   60 1   
    61   54   61 1   
    62   62   63 1   
    63   62   66 1   
    64   63   64 1   
    65   63   67 1   
    66   63   68 1   
    67   64   65 2   
    68   64   69 1   
    69   69   70 1   
    70   69   76 1   
    71   70   71 1   
    72   70   73 1   
    73   70   77 1   
    74   71   72 2   
    75   71   83 1   
    76   73   74 1   
    77   73   75 1   
    78   73   78 1   
    79   74   80 1   
    80   74   81 1   
    81   74   82 1   
    82   75   79 1   
    83   83   84 1   
    84   83   91 1   
    85   84   85 1   
    86   84   87 1   
    87   84   92 1   
    88   85   86 2   
    89   85  102 1   
    90   87   88 1   
    91   87   89 1   
    92   87   93 1   
    93   88   90 1   
    94   88   94 1   
    95   88   95 1   
    96   89   96 1   
    97   89   97 1   
    98   89   98 1   
    99   90   99 1   
   100   90  100 1   
   101   90  101 1   
   102  102  103 1   
   103  102  110 1   
   104  103  104 1   
   105  103  106 1   
   106  103  111 1   
   107  104  105 2   
   108  104  114 1   
   109  106  107 1   
   110  106  112 1   
   111  106  113 1   
   112  107  108 1   
   113  107  109 1   
   114  114  115 1   
   115  114  125 1   
   116  115  116 1   
   117  115  118 1   
   118  115  126 1   
   119  116  117 2   
   120  116  134 1   
   121  118  119 1   
   122  118  127 1   
   123  118  128 1   
   124  119  120 ar  
   125  119  121 ar  
   126  120  122 ar  
   127  120  129 1   
   128  121  123 ar  
   129  121  130 1   
   130  122  124 ar  
   131  122  131 1   
   132  123  124 ar  
   133  123  132 1   
   134  124  133 1   
   135  134  135 1   
   136  134  140 1   
   137  135  136 1   
   138  135  138 1   
   139  135  141 1   
   140  136  137 2   
   141  136  148 1   
   142  138  139 1   
   143  138  142 1   
   144  138  143 1   
   145  139  140 1   
   146  139  144 1   
   147  139  145 1   
   148  140  146 1   
   149  140  147 1   
   150  148  149 1   
   151  148  157 1   
   152  149  150 1   
   153  149  152 1   
   154  149  158 1   
   155  150  151 2   
   156  150  163 1   
   157  152  153 1   
   158  152  159 1   
   159  152  160 1   
   160  153  154 1   
   161  153  161 1   
   162  153  162 1   
   163  154  155 1   
   164  154  156 1   
   165  163  164 1   
   166  163  168 1   
   167  164  165 1   
   168  164  166 1   
   169  164  167 1   
@<TRIPOS>SUBSTRUCTURE
     1 MOL         1 TEMP              0 ****  ****    0 ROOT
