@<TRIPOS>MOLECULE
MOL
  189   185     1     0     0
SMALL
resp


@<TRIPOS>ATOM
      1 C1          0.4500    2.6630   -5.6010 c3        1 MOL     -0.424746
      2 C2          0.9050    2.4100   -4.2180 c         1 MOL      0.652694
      3 O1          0.0510    2.6640   -3.3320 o         1 MOL     -0.562626
      4 H1         -0.3860    2.0030   -5.8340 hc        1 MOL      0.110276
      5 H2          0.1310    3.7010   -5.6950 hc        1 MOL      0.110276
      6 H3          1.2680    2.4690   -6.2940 hc        1 MOL      0.110276
      7 N1          2.0880    1.8610   -3.8740 n         1 MOL     -0.578340
      8 C3          2.4550    1.7500   -2.4390 c3        1 MOL      0.326709
      9 C4          2.6490    3.1210   -1.7180 c         1 MOL      0.324586
     10 O2          3.5400    3.8710   -2.0700 o         1 MOL     -0.542302
     11 C5          3.7140    0.9370   -2.2980 c3        1 MOL     -0.463821
     12 C6          4.1310    0.5650   -0.8480 c         1 MOL      0.979127
     13 O3          3.3750    0.8490    0.1150 o         1 MOL     -0.686239
     14 O4          5.2650    0.1310   -0.8110 o         1 MOL     -0.686239
     15 H4          2.7360    1.5430   -4.5780 hn        1 MOL      0.327807
     16 H5          1.6760    1.1690   -1.9490 h1        1 MOL     -0.030840
     17 H6          4.5540    1.4860   -2.7250 hc        1 MOL      0.094436
     18 H7          3.5490    0.0340   -2.8970 hc        1 MOL      0.094436
     19 N2          1.9220    3.3400   -0.6330 n         1 MOL     -0.069019
     20 C7          1.8920    4.6450    0.0080 c3        1 MOL      0.007573
     21 C8          2.6700    4.7030    1.3350 c         1 MOL      0.467398
     22 O5          2.7960    5.8070    1.9290 o         1 MOL     -0.567572
     23 C9          0.4960    5.1640    0.1200 c3        1 MOL     -0.013361
     24 C10        -0.5000    5.0690   -1.0760 c3        1 MOL      0.124814
     25 C11        -0.0190    5.5720   -2.3960 c3        1 MOL     -0.157085
     26 C12         0.0780    7.1260   -2.4490 c3        1 MOL      0.168543
     27 N3          0.4490    7.6370   -3.7890 n4        1 MOL     -0.529883
     28 H8          1.3710    2.5830   -0.2490 hn        1 MOL      0.097623
     29 H9          2.4900    5.3750   -0.5290 h1        1 MOL      0.039753
     30 H10         0.5490    6.1790    0.5000 hc        1 MOL      0.006953
     31 H11         0.0500    4.5690    0.9150 hc        1 MOL      0.006953
     32 H12        -1.3650    5.7030   -0.8700 hc        1 MOL     -0.000304
     33 H13        -0.7730    4.0160   -1.1760 hc        1 MOL     -0.000304
     34 H14        -0.8140    5.3020   -3.0860 hc        1 MOL      0.062783
     35 H15         0.8860    5.0630   -2.7210 hc        1 MOL      0.062783
     36 H16         0.6950    7.5030   -1.6350 hx        1 MOL      0.046409
     37 H17        -0.8910    7.5580   -2.1720 hx        1 MOL      0.046409
     38 H18         1.3650    7.3220   -4.0620 hn        1 MOL      0.367858
     39 H19        -0.1840    7.3450   -4.5220 hn        1 MOL      0.367858
     40 H20         0.3990    8.6480   -3.6740 hn        1 MOL      0.367858
     41 N4          3.1340    3.5430    1.8050 n         1 MOL     -0.347983
     42 C13         3.9160    3.4250    3.0790 c3        1 MOL      0.076993
     43 C14         5.3490    2.8970    2.9330 c         1 MOL      0.381160
     44 O6          6.2140    2.9510    3.9000 o         1 MOL     -0.519280
     45 C15         3.0880    2.7770    4.2430 c3        1 MOL     -0.150305
     46 C16         2.7470    1.2780    4.0790 c         1 MOL      0.721890
     47 O7          2.1790    0.6720    5.0290 o         1 MOL     -0.659806
     48 O8          2.9030    0.7360    2.9120 o         1 MOL     -0.659806
     49 H21         2.8380    2.7100    1.3140 hn        1 MOL      0.257084
     50 H22         4.1500    4.4390    3.4040 h1        1 MOL      0.087713
     51 H23         2.1730    3.3130    4.4540 hc        1 MOL      0.036456
     52 H24         3.6950    2.8500    5.1510 hc        1 MOL      0.036456
     53 N5          5.7050    2.5930    1.6890 n         1 MOL     -0.207864
     54 C17         6.9780    2.0650    1.3060 c3        1 MOL     -0.394107
     55 C18         7.3090    0.5930    1.5970 c         1 MOL      0.614147
     56 O9          8.4480    0.1300    1.6180 o         1 MOL     -0.596882
     57 H25         4.8950    2.4570    1.0930 hn        1 MOL      0.188442
     58 H26         7.7570    2.6480    1.7890 h1        1 MOL      0.167757
     59 H27         6.9700    2.2240    0.2310 h1        1 MOL      0.167757
     60 N6          6.3010   -0.2260    1.9090 n         1 MOL     -0.174710
     61 C19         6.5160   -1.5940    2.4280 c3        1 MOL     -0.111658
     62 C20         6.8670   -2.6130    1.3610 c         1 MOL      0.471781
     63 O10         7.2450   -3.7490    1.6730 o         1 MOL     -0.553466
     64 C21         5.3030   -2.0110    3.3140 c3        1 MOL     -0.173653
     65 C22         4.0080   -2.0290    2.5650 c         1 MOL      0.765270
     66 O11         4.0120   -1.9530    1.3340 o         1 MOL     -0.716872
     67 O12         2.9170   -2.2590    3.1360 o         1 MOL     -0.716872
     68 H28         5.3560   -0.0330    1.6220 hn        1 MOL      0.079306
     69 H29         7.3430   -1.5450    3.1250 h1        1 MOL      0.128614
     70 H30         5.2230   -1.3090    4.1460 hc        1 MOL      0.071717
     71 H31         5.5020   -2.9320    3.8510 hc        1 MOL      0.071717
     72 N7          6.5720   -2.2990    0.0490 n         1 MOL     -0.167343
     73 C23         6.8060   -3.1260   -1.1110 c3        1 MOL     -0.204977
     74 C24         5.6240   -3.9820   -1.6050 c         1 MOL      0.575334
     75 O13         5.7930   -4.8000   -2.5050 o         1 MOL     -0.587610
     76 H32         6.1720   -1.3790   -0.0970 hn        1 MOL      0.209649
     77 H33         7.6750   -3.7600   -0.8990 h1        1 MOL      0.098405
     78 H34         7.0950   -2.4830   -1.9510 h1        1 MOL      0.098405
     79 N8          4.4150   -3.6940   -1.1440 n         1 MOL     -0.292211
     80 C25         3.1410   -4.2250   -1.6280 c3        1 MOL     -0.086729
     81 C26         2.0840   -3.1490   -1.7220 c         1 MOL      0.697329
     82 O14         2.2300   -2.1040   -1.0510 o         1 MOL     -0.677262
     83 C27         2.5390   -5.2210   -0.6330 c3        1 MOL      0.311061
     84 C28         3.3740   -6.4940   -0.5450 c3        1 MOL     -0.426845
     85 O15         2.4010   -4.7440    0.6620 oh        1 MOL     -0.590344
     86 H35         4.3380   -2.9280   -0.4880 hn        1 MOL      0.235736
     87 H36         3.2270   -4.7410   -2.5840 h1        1 MOL      0.078683
     88 H37         1.5760   -5.4360   -1.1110 h1        1 MOL      0.030297
     89 H38         3.2740   -4.8060    1.0570 ho        1 MOL      0.432597
     90 H39         3.5780   -6.8830   -1.5430 hc        1 MOL      0.115203
     91 H40         4.2800   -6.4570    0.0660 hc        1 MOL      0.115203
     92 H41         2.7080   -7.2500   -0.1180 hc        1 MOL      0.115203
     93 N9          1.0120   -3.3760   -2.5010 n         1 MOL     -0.669171
     94 C29        -0.1910   -2.5360   -2.5230 c3        1 MOL      0.231108
     95 C30        -1.4160   -3.2390   -1.8490 c         1 MOL      0.463711
     96 O16        -1.8930   -4.2640   -2.3850 o         1 MOL     -0.551406
     97 C31        -0.5430   -2.1830   -3.9590 c3        1 MOL      0.270738
     98 C32         0.6430   -1.7300   -4.8760 c3        1 MOL      0.163539
     99 C33        -1.6690   -1.1950   -3.9980 c3        1 MOL     -0.535014
    100 C34         0.5090   -1.9940   -6.4000 c3        1 MOL     -0.259650
    101 H42         1.0400   -4.2960   -2.9310 hn        1 MOL      0.300383
    102 H43         0.0720   -1.6270   -1.9800 h1        1 MOL      0.062326
    103 H44        -0.8940   -3.1610   -4.2870 hc        1 MOL     -0.048839
    104 H45         1.5790   -2.2240   -4.6430 hc        1 MOL     -0.023766
    105 H46         0.9700   -0.7110   -4.6300 hc        1 MOL     -0.023766
    106 H47        -2.5350   -1.5420   -3.4430 hc        1 MOL      0.117438
    107 H48        -1.2700   -0.2690   -3.5710 hc        1 MOL      0.117438
    108 H49        -1.8910   -1.0200   -5.0440 hc        1 MOL      0.117438
    109 H50         0.7780   -3.0340   -6.5340 hc        1 MOL      0.053658
    110 H51        -0.4490   -1.6920   -6.8250 hc        1 MOL      0.053658
    111 H52         1.2010   -1.3700   -6.9680 hc        1 MOL      0.053658
    112 N10        -2.0280   -2.6650   -0.7840 n         1 MOL     -0.332002
    113 C35        -3.2520   -3.1340   -0.1050 c3        1 MOL     -0.032152
    114 C36        -4.5080   -2.3700   -0.4710 c         1 MOL      0.589968
    115 O17        -4.4300   -1.3270   -1.1450 o         1 MOL     -0.457624
    116 C37        -2.9850   -3.1870    1.4220 c3        1 MOL      0.286568
    117 C38        -2.9440   -1.8070    2.0800 c3        1 MOL     -0.008582
    118 O18        -4.0050   -3.9830    2.0150 oh        1 MOL     -0.679009
    119 H53        -1.4780   -1.8980   -0.4280 hn        1 MOL      0.214049
    120 H54        -3.3570   -4.1800   -0.3800 h1        1 MOL      0.084733
    121 H55        -2.0450   -3.7010    1.6090 h1        1 MOL      0.027819
    122 H56        -3.5310   -4.7000    2.4240 ho        1 MOL      0.421573
    123 H57        -2.6300   -1.9650    3.1150 hc        1 MOL     -0.004924
    124 H58        -2.3540   -1.0650    1.5440 hc        1 MOL     -0.004924
    125 H59        -3.9670   -1.4210    2.1590 hc        1 MOL     -0.004924
    126 N11        -5.7320   -2.8460   -0.1900 n         1 MOL     -0.462952
    127 C39        -6.9480   -2.3400   -0.8210 c3        1 MOL      0.165938
    128 C40        -7.1780   -0.8430   -0.4250 c         1 MOL      0.171237
    129 O19        -7.6080    0.0040   -1.2600 o         1 MOL     -0.459342
    130 C41        -8.1380   -3.1710   -0.2750 c3        1 MOL      0.402779
    131 C42        -9.3840   -3.2090   -1.1330 c3        1 MOL     -0.439457
    132 O20        -7.8100   -4.5130    0.0470 oh        1 MOL     -0.607880
    133 H60        -5.8020   -3.7660    0.2170 hn        1 MOL      0.254980
    134 H61        -6.8870   -2.3630   -1.9100 h1        1 MOL      0.071799
    135 H62        -8.3360   -2.6040    0.6290 h1        1 MOL     -0.067759
    136 H63        -8.5510   -4.8950    0.5220 ho        1 MOL      0.394288
    137 H64        -9.6140   -2.1650   -1.3170 hc        1 MOL      0.119634
    138 H65        -9.2490   -3.8330   -2.0150 hc        1 MOL      0.119634
    139 H66       -10.1790   -3.6340   -0.5130 hc        1 MOL      0.119634
    140 N12        -6.7850   -0.3560    0.7790 n         1 MOL      0.011721
    141 C43        -7.0100    1.0910    1.0890 c3        1 MOL     -0.065023
    142 C44        -6.0450    2.0440    0.3690 c         1 MOL      0.343003
    143 O21        -6.3410    3.2720    0.1890 o         1 MOL     -0.511948
    144 C45        -6.8590    1.2910    2.6020 c3        1 MOL     -0.117499
    145 C46        -7.8490    0.5390    3.4490 c3        1 MOL     -0.064815
    146 C47        -7.7500    0.8280    5.0220 c3        1 MOL     -0.059651
    147 C48        -9.0870    0.6880    5.7160 c3        1 MOL      0.078766
    148 N13        -9.0370    0.8030    7.1910 n4        1 MOL     -0.189173
    149 H67        -6.7540   -1.0130    1.5460 hn        1 MOL      0.158784
    150 H68        -8.0090    1.3950    0.7590 h1        1 MOL      0.112385
    151 H69        -7.0470    2.3460    2.7730 hc        1 MOL      0.069072
    152 H70        -5.8350    1.0080    2.8470 hc        1 MOL      0.069072
    153 H71        -7.9870   -0.4920    3.1470 hc        1 MOL      0.030709
    154 H72        -8.8340    0.8210    3.0750 hc        1 MOL      0.030709
    155 H73        -7.4660    1.8660    5.1970 hc        1 MOL      0.053031
    156 H74        -7.0040    0.1690    5.4710 hc        1 MOL      0.053031
    157 H75        -9.4330   -0.3350    5.6020 hx        1 MOL      0.060397
    158 H76        -9.8050    1.3880    5.2860 hx        1 MOL      0.060397
    159 H77        -8.3960    0.1330    7.5740 hn        1 MOL      0.244245
    160 H78        -8.7370    1.6970    7.5480 hn        1 MOL      0.244245
    161 H79        -9.9070    0.5430    7.6360 hn        1 MOL      0.244245
    162 N14        -4.9290    1.5560   -0.0710 n         1 MOL     -0.024883
    163 C49        -3.9720    2.3850   -0.8660 c3        1 MOL     -0.218975
    164 C50        -4.4330    2.5030   -2.2950 c         1 MOL      0.601862
    165 O22        -4.5870    3.6000   -2.8080 o         1 MOL     -0.576367
    166 C51        -2.6120    1.7170   -0.8540 c3        1 MOL     -0.098417
    167 C52        -1.8260    1.7500    0.4480 c3        1 MOL      0.401148
    168 C53        -0.4920    1.0220    0.5030 c         1 MOL      0.543180
    169 O23        -0.3900   -0.1130   -0.0120 o         1 MOL     -0.671065
    170 O24         0.3680    1.5240    1.1930 o         1 MOL     -0.671065
    171 H80        -4.6980    0.5760    0.0440 hn        1 MOL      0.094391
    172 H81        -3.9140    3.4110   -0.4930 h1        1 MOL      0.099389
    173 H82        -2.1210    2.2670   -1.6690 hc        1 MOL     -0.007952
    174 H83        -2.7580    0.7010   -1.1970 hc        1 MOL     -0.007952
    175 H84        -2.4530    1.3340    1.2350 hc        1 MOL     -0.114667
    176 H85        -1.6640    2.7870    0.7480 hc        1 MOL     -0.114667
    177 N15        -4.8640    1.4570   -2.9730 n         1 MOL     -0.196305
    178 C54        -5.5010    1.3660   -4.2570 c3        1 MOL     -0.146787
    179 H86        -6.2060    0.5340   -4.2540 h1        1 MOL      0.075157
    180 H87        -6.0360    2.2940   -4.4640 h1        1 MOL      0.075157
    181 H88        -4.7470    1.2000   -5.0260 h1        1 MOL      0.075157
    182 H89        -4.9280    0.5930   -2.4750 hn        1 MOL      0.206002
    183 Ca1         1.7750   -0.7090    1.2320 Ca        1 MOL      1.663755
    184 O25         0.3220   -3.0590    1.2790 oh        1 MOL     -0.801490
    185 H90         0.9640   -3.6910    0.9770 ho        1 MOL      0.376077
    186 H91        -0.1480   -3.5060    1.9860 ho        1 MOL      0.376077
    187 O26         0.0810   -0.5470    3.3190 oh        1 MOL     -0.801490
    188 H92         0.5600   -0.0800    4.0080 ho        1 MOL      0.376077
    189 H93        -0.8130   -0.2040    3.3810 ho        1 MOL      0.376077
@<TRIPOS>BOND
     1    1    2 1   
     2    1    4 1   
     3    1    5 1   
     4    1    6 1   
     5    2    3 2   
     6    2    7 1   
     7    7    8 1   
     8    7   15 1   
     9    8    9 1   
    10    8   11 1   
    11    8   16 1   
    12    9   10 2   
    13    9   19 1   
    14   11   12 1   
    15   11   17 1   
    16   11   18 1   
    17   12   13 1   
    18   12   14 1   
    19   19   20 1   
    20   19   28 1   
    21   20   21 1   
    22   20   23 1   
    23   20   29 1   
    24   21   22 2   
    25   21   41 1   
    26   23   24 1   
    27   23   30 1   
    28   23   31 1   
    29   24   25 1   
    30   24   32 1   
    31   24   33 1   
    32   25   26 1   
    33   25   34 1   
    34   25   35 1   
    35   26   27 1   
    36   26   36 1   
    37   26   37 1   
    38   27   38 1   
    39   27   39 1   
    40   27   40 1   
    41   41   42 1   
    42   41   49 1   
    43   42   43 1   
    44   42   45 1   
    45   42   50 1   
    46   43   44 2   
    47   43   53 1   
    48   45   46 1   
    49   45   51 1   
    50   45   52 1   
    51   46   47 1   
    52   46   48 1   
    53   53   54 1   
    54   53   57 1   
    55   54   55 1   
    56   54   58 1   
    57   54   59 1   
    58   55   56 2   
    59   55   60 1   
    60   60   61 1   
    61   60   68 1   
    62   61   62 1   
    63   61   64 1   
    64   61   69 1   
    65   62   63 2   
    66   62   72 1   
    67   64   65 1   
    68   64   70 1   
    69   64   71 1   
    70   65   66 1   
    71   65   67 1   
    72   72   73 1   
    73   72   76 1   
    74   73   74 1   
    75   73   77 1   
    76   73   78 1   
    77   74   75 2   
    78   74   79 1   
    79   79   80 1   
    80   79   86 1   
    81   80   81 1   
    82   80   83 1   
    83   80   87 1   
    84   81   82 2   
    85   81   93 1   
    86   83   84 1   
    87   83   85 1   
    88   83   88 1   
    89   84   90 1   
    90   84   91 1   
    91   84   92 1   
    92   85   89 1   
    93   93   94 1   
    94   93  101 1   
    95   94   95 1   
    96   94   97 1   
    97   94  102 1   
    98   95   96 2   
    99   95  112 1   
   100   97   98 1   
   101   97   99 1   
   102   97  103 1   
   103   98  100 1   
   104   98  104 1   
   105   98  105 1   
   106   99  106 1   
   107   99  107 1   
   108   99  108 1   
   109  100  109 1   
   110  100  110 1   
   111  100  111 1   
   112  112  113 1   
   113  112  119 1   
   114  113  114 1   
   115  113  116 1   
   116  113  120 1   
   117  114  115 2   
   118  114  126 1   
   119  116  117 1   
   120  116  118 1   
   121  116  121 1   
   122  117  123 1   
   123  117  124 1   
   124  117  125 1   
   125  118  122 1   
   126  126  127 1   
   127  126  133 1   
   128  127  128 1   
   129  127  130 1   
   130  127  134 1   
   131  128  129 2   
   132  128  140 1   
   133  130  131 1   
   134  130  132 1   
   135  130  135 1   
   136  131  137 1   
   137  131  138 1   
   138  131  139 1   
   139  132  136 1   
   140  140  141 1   
   141  140  149 1   
   142  141  142 1   
   143  141  144 1   
   144  141  150 1   
   145  142  143 2   
   146  142  162 1   
   147  144  145 1   
   148  144  151 1   
   149  144  152 1   
   150  145  146 1   
   151  145  153 1   
   152  145  154 1   
   153  146  147 1   
   154  146  155 1   
   155  146  156 1   
   156  147  148 1   
   157  147  157 1   
   158  147  158 1   
   159  148  159 1   
   160  148  160 1   
   161  148  161 1   
   162  162  163 1   
   163  162  171 1   
   164  163  164 1   
   165  163  166 1   
   166  163  172 1   
   167  164  165 2   
   168  164  177 1   
   169  166  167 1   
   170  166  173 1   
   171  166  174 1   
   172  167  168 1   
   173  167  175 1   
   174  167  176 1   
   175  168  169 1   
   176  168  170 1   
   177  177  178 1   
   178  177  182 1   
   179  178  179 1   
   180  178  180 1   
   181  178  181 1   
   182  184  185 1   
   183  184  186 1   
   184  187  188 1   
   185  187  189 1   
@<TRIPOS>SUBSTRUCTURE
     1 MOL         1 TEMP              0 ****  ****    0 ROOT
