@<TRIPOS>MOLECULE
MOL
  175   173     1     0     0
SMALL
resp


@<TRIPOS>ATOM
      1 C1          0.3030    4.3160    5.4880 c3        1 MOL     -0.313510
      2 C2         -0.1700    4.0720    4.0590 c         1 MOL      0.716887
      3 O1          0.6240    3.9690    3.1160 o         1 MOL     -0.542881
      4 H1          1.3830    4.1830    5.5400 hc        1 MOL      0.076753
      5 H2          0.0470    5.3320    5.7870 hc        1 MOL      0.076753
      6 H3         -0.1830    3.6060    6.1580 hc        1 MOL      0.076753
      7 N1         -1.5180    3.8730    3.8770 n         1 MOL     -0.699660
      8 C3         -2.0400    3.4770    2.5810 c3        1 MOL      0.232490
      9 C4         -2.0500    4.6920    1.6390 c         1 MOL      0.633786
     10 O2         -2.1670    5.8550    2.1130 o         1 MOL     -0.598838
     11 C5         -3.4690    2.9220    2.8240 c3        1 MOL     -0.267143
     12 C6         -4.1410    2.3630    1.5510 c         1 MOL      0.659266
     13 O3         -3.4010    1.8610    0.6430 o         1 MOL     -0.630218
     14 O4         -5.3970    2.4350    1.4940 o         1 MOL     -0.630218
     15 H4         -2.1450    3.8150    4.6590 hn        1 MOL      0.343625
     16 H5         -1.4910    2.6340    2.1700 h1        1 MOL      0.019072
     17 H6         -4.1380    3.6420    3.2820 hc        1 MOL      0.044666
     18 H7         -3.3480    2.0510    3.4620 hc        1 MOL      0.044666
     19 N2         -2.1550    4.5740    0.3230 n         1 MOL     -0.570715
     20 C7         -2.4420    5.6260   -0.6750 c3        1 MOL      0.482681
     21 C8         -3.4960    5.2510   -1.7120 c         1 MOL      0.260839
     22 O5         -3.9080    6.0960   -2.5240 o         1 MOL     -0.538746
     23 C9         -1.0810    5.9940   -1.2900 c3        1 MOL     -0.349626
     24 H8         -1.7750    3.7470   -0.1010 hn        1 MOL      0.260926
     25 H9         -2.7870    6.4950   -0.1270 h1        1 MOL     -0.010409
     26 H10        -0.6420    5.2550   -1.9570 hc        1 MOL      0.082030
     27 H11        -1.3370    6.9230   -1.8070 hc        1 MOL      0.082030
     28 H12        -0.4340    6.1330   -0.4120 hc        1 MOL      0.082030
     29 N3         -3.9440    3.9470   -1.7820 n         1 MOL     -0.122571
     30 C10        -4.7240    3.3670   -2.9340 c3        1 MOL      0.095095
     31 C11        -6.0270    2.6300   -2.5650 c         1 MOL      0.280605
     32 O6         -6.8470    2.4990   -3.4670 o         1 MOL     -0.531365
     33 C12        -3.8280    2.2680   -3.5650 c3        1 MOL     -0.214097
     34 C13        -3.1070    1.2740   -2.6110 c         1 MOL      0.699720
     35 O7         -3.8220    0.5070   -1.9160 o         1 MOL     -0.697930
     36 O8         -1.8740    1.3440   -2.5010 o         1 MOL     -0.697930
     37 H13        -3.6670    3.3170   -1.0450 hn        1 MOL      0.102655
     38 H14        -4.9490    4.1790   -3.6120 h1        1 MOL      0.086361
     39 H15        -2.9720    2.6870   -4.0880 hc        1 MOL      0.047548
     40 H16        -4.4970    1.7250   -4.2440 hc        1 MOL      0.047548
     41 N4         -6.2430    2.1750   -1.3400 n         1 MOL      0.018756
     42 C14        -7.4090    1.4180   -0.9910 c3        1 MOL     -0.315033
     43 C15        -7.3820   -0.1120   -1.3210 c         1 MOL      0.520869
     44 O9         -8.4540   -0.6950   -1.2720 o         1 MOL     -0.616801
     45 H17        -5.5170    2.3330   -0.6560 hn        1 MOL      0.018127
     46 H18        -8.2570    1.9500   -1.4350 h1        1 MOL      0.136043
     47 H19        -7.4200    1.3850    0.1010 h1        1 MOL      0.136043
     48 N5         -6.2770   -0.7660   -1.6230 n         1 MOL     -0.141862
     49 C16        -6.2700   -2.1910   -2.0420 c3        1 MOL     -0.169334
     50 C17        -6.4020   -3.1630   -0.8650 c         1 MOL      0.679620
     51 O10        -6.4200   -4.3420   -1.1090 o         1 MOL     -0.560648
     52 C18        -5.0430   -2.3470   -3.0230 c3        1 MOL     -0.033302
     53 C19        -3.6640   -2.4290   -2.3540 c         1 MOL      0.516161
     54 N6         -2.6900   -2.6940   -3.1870 n         1 MOL     -0.660234
     55 O11        -3.4560   -2.2980   -1.1500 o         1 MOL     -0.468399
     56 H20        -5.3960   -0.2780   -1.6900 hn        1 MOL      0.230904
     57 H21        -7.2070   -2.4360   -2.5440 h1        1 MOL      0.107156
     58 H22        -5.0210   -1.4580   -3.6590 hc        1 MOL      0.031740
     59 H23        -5.1650   -3.2030   -3.6780 hc        1 MOL      0.031740
     60 H24        -2.8450   -2.6870   -4.1820 hn        1 MOL      0.341836
     61 H25        -1.7730   -2.6120   -2.7710 hn        1 MOL      0.341836
     62 N7         -6.4850   -2.6450    0.3570 n         1 MOL     -0.536215
     63 C20        -6.3620   -3.3050    1.6840 c3        1 MOL      0.061161
     64 C21        -5.1150   -4.1200    1.9310 c         1 MOL      0.360703
     65 O12        -5.1690   -5.0720    2.7440 o         1 MOL     -0.552172
     66 H26        -6.4530   -1.6400    0.4370 hn        1 MOL      0.319254
     67 H27        -7.1900   -3.9470    1.9920 h1        1 MOL      0.061101
     68 H28        -6.4850   -2.5250    2.4380 h1        1 MOL      0.061101
     69 N8         -3.9600   -3.7320    1.3610 n         1 MOL     -0.053436
     70 C22        -2.6300   -4.4140    1.4980 c3        1 MOL     -0.164466
     71 C23        -1.4750   -3.4960    1.5140 c         1 MOL      0.308401
     72 O13        -1.5040   -2.4370    0.8880 o         1 MOL     -0.346341
     73 C24        -2.4410   -5.4330    0.3410 c3        1 MOL      0.717555
     74 C25        -3.3490   -6.6250    0.4580 c3        1 MOL     -0.546661
     75 O14        -2.4180   -4.8720   -0.9060 oh        1 MOL     -0.583624
     76 H29        -3.9800   -2.9550    0.7080 hn        1 MOL     -0.051843
     77 H30        -2.5300   -4.9700    2.4340 h1        1 MOL      0.085698
     78 H31        -1.4520   -5.8790    0.4580 h1        1 MOL     -0.110791
     79 H32        -2.3430   -3.9420   -0.6840 ho        1 MOL      0.301683
     80 H33        -3.4240   -6.7920    1.5310 hc        1 MOL      0.122102
     81 H34        -4.3550   -6.3260    0.1660 hc        1 MOL      0.122102
     82 H35        -3.0370   -7.4970   -0.1230 hc        1 MOL      0.122102
     83 N9         -0.4230   -3.7560    2.2420 n         1 MOL     -0.328924
     84 C26         0.8070   -2.9030    2.1620 c3        1 MOL     -0.041676
     85 C27         1.5100   -3.1930    0.8450 c         1 MOL      0.363335
     86 O15         1.6350   -4.3610    0.3920 o         1 MOL     -0.542711
     87 C28         1.8210   -2.9740    3.3550 c3        1 MOL      0.096438
     88 C29         1.1430   -2.9220    4.7170 c3        1 MOL     -0.071228
     89 C30         2.8450   -1.8250    3.1960 c3        1 MOL     -0.187823
     90 C31         0.3440   -1.6040    5.0110 c3        1 MOL      0.033396
     91 H36        -0.4590   -4.5390    2.8810 hn        1 MOL      0.252591
     92 H37         0.5420   -1.8500    2.1900 h1        1 MOL      0.188169
     93 H38         2.3830   -3.9030    3.3040 hc        1 MOL      0.002644
     94 H39         1.8880   -3.1680    5.4620 hc        1 MOL      0.007816
     95 H40         0.3380   -3.6530    4.8540 hc        1 MOL      0.007816
     96 H41         2.3390   -0.9300    2.8290 hc        1 MOL      0.036102
     97 H42         3.3660   -1.5720    4.1170 hc        1 MOL      0.036102
     98 H43         3.5780   -2.1350    2.4630 hc        1 MOL      0.036102
     99 H44         0.1590   -1.4270    6.0740 hc        1 MOL     -0.017685
    100 H45         0.9000   -0.6890    4.7680 hc        1 MOL     -0.017685
    101 H46        -0.6160   -1.6250    4.5020 hc        1 MOL     -0.017685
    102 N10         1.9100   -2.1070    0.1840 n         1 MOL     -0.016281
    103 C32         2.6360   -2.0690   -1.0520 c3        1 MOL      0.097152
    104 C33         4.0600   -1.4320   -0.7920 c         1 MOL      0.210485
    105 O16         4.2940   -0.7020    0.1000 o         1 MOL     -0.127351
    106 C34         1.9060   -1.2720   -2.1420 c3        1 MOL     -0.247781
    107 C35         0.5060   -1.7730   -2.4370 c         1 MOL      0.692783
    108 O17        -0.4250   -1.3890   -1.7080 o         1 MOL     -0.672258
    109 O18         0.3350   -2.3770   -3.5210 o         1 MOL     -0.672258
    110 H47         1.5280   -1.2290    0.5190 hn        1 MOL      0.001150
    111 H48         2.7820   -3.1020   -1.3390 h1        1 MOL      0.040808
    112 H49         2.5160   -1.3100   -3.0480 hc        1 MOL      0.064962
    113 H50         1.8670   -0.2540   -1.7460 hc        1 MOL      0.064962
    114 N11         5.1130   -1.8720   -1.5830 n         1 MOL     -0.497173
    115 C36         6.5280   -1.5310   -1.3510 c3        1 MOL      0.080358
    116 C37         6.8120    0.0010   -1.1570 c         1 MOL      0.450950
    117 O19         7.5150    0.3310   -0.1990 o         1 MOL     -0.477561
    118 C38         7.4430   -2.1520   -2.4290 c3        1 MOL     -0.107038
    119 C39         8.9400   -1.9690   -2.0850 ca        1 MOL      0.033585
    120 C40         9.5290   -2.8360   -1.2390 ca        1 MOL     -0.139461
    121 C41         9.6760   -0.8590   -2.5690 ca        1 MOL     -0.139461
    122 C42        10.8550   -2.5250   -0.7240 ca        1 MOL     -0.142060
    123 C43        10.9630   -0.5610   -2.0770 ca        1 MOL     -0.142060
    124 C44        11.5640   -1.3940   -1.1690 ca        1 MOL     -0.055830
    125 H51         4.9690   -2.4970   -2.3740 hn        1 MOL      0.310548
    126 H52         6.7450   -1.9570   -0.3720 h1        1 MOL      0.095882
    127 H53         7.2670   -1.8540   -3.4590 hc        1 MOL      0.058758
    128 H54         7.2020   -3.2060   -2.5770 hc        1 MOL      0.058758
    129 H55         9.0010   -3.6970   -0.8420 ha        1 MOL      0.105985
    130 H56         9.3160   -0.3460   -3.4470 ha        1 MOL      0.105985
    131 H57        11.2860   -3.1550    0.0460 ha        1 MOL      0.117571
    132 H58        11.4020    0.3820   -2.3790 ha        1 MOL      0.117571
    133 H59        12.5540   -1.2570   -0.7660 ha        1 MOL      0.087683
    134 N12         6.2230    0.9360   -2.0010 n         1 MOL     -0.150292
    135 C45         6.3730    2.3770   -1.8100 c3        1 MOL      0.112192
    136 C46         5.8080    2.7590   -0.3690 c         1 MOL      0.275412
    137 O20         6.2460    3.8060    0.1250 o         1 MOL     -0.500254
    138 C47         5.6490    3.0340   -3.0340 c3        1 MOL     -0.240545
    139 C48         4.8370    1.9110   -3.6700 c3        1 MOL      0.030380
    140 C49         5.6080    0.6650   -3.3320 c3        1 MOL     -0.045286
    141 H60         7.4400    2.6370   -1.8190 h1        1 MOL      0.044819
    142 H61         5.0480    3.8890   -2.7570 hc        1 MOL      0.094521
    143 H62         6.4040    3.2390   -3.7910 hc        1 MOL      0.094521
    144 H63         3.8790    1.7780   -3.1780 hc        1 MOL      0.026755
    145 H64         4.7200    2.0060   -4.7510 hc        1 MOL      0.026755
    146 H65         4.9840   -0.2280   -3.4250 h1        1 MOL      0.037308
    147 H66         6.4520    0.5210   -4.0110 h1        1 MOL      0.037308
    148 N13         4.8350    2.0460    0.2470 n         1 MOL     -0.080172
    149 C50         4.2950    2.3320    1.5970 c3        1 MOL     -0.197817
    150 C51         5.0880    1.6170    2.6840 c         1 MOL      0.456102
    151 O21         5.1500    2.1010    3.8360 o         1 MOL     -0.555106
    152 C52         2.8420    1.8280    1.7390 c3        1 MOL      0.148787
    153 C53         1.9150    2.1690    0.5610 c3        1 MOL     -0.168759
    154 C54         0.5400    1.5120    0.5840 c         1 MOL      0.563959
    155 O22        -0.4690    1.9890   -0.0250 o         1 MOL     -0.645236
    156 O23         0.3790    0.3960    1.1240 o         1 MOL     -0.645236
    157 H67         4.2740    1.3830   -0.2670 hn        1 MOL      0.192047
    158 H68         4.3240    3.4110    1.7580 h1        1 MOL      0.132611
    159 H69         2.3450    2.2930    2.5950 hc        1 MOL     -0.009061
    160 H70         2.9160    0.7400    1.8060 hc        1 MOL     -0.009061
    161 H71         2.4380    1.8390   -0.3400 hc        1 MOL      0.063312
    162 H72         1.8290    3.2530    0.4830 hc        1 MOL      0.063312
    163 N14         5.8330    0.5410    2.3120 n         1 MOL     -0.054233
    164 C55         6.7200   -0.1940    3.1860 c3        1 MOL     -0.196750
    165 H73         7.7490   -0.0660    2.8490 h1        1 MOL      0.073110
    166 H74         6.6210    0.1820    4.2050 h1        1 MOL      0.073110
    167 H75         6.4590   -1.2530    3.1620 h1        1 MOL      0.073110
    168 H76         5.7710    0.1540    1.3740 hn        1 MOL      0.037049
    169 Ca1        -1.9380   -0.0000   -0.2250 Ca        1 MOL      1.659098
    170 O24        -4.0620   -0.7860    1.3820 oh        1 MOL     -0.677325
    171 H77        -3.6630   -0.8140    2.2460 ho        1 MOL      0.345215
    172 H78        -4.9770   -0.5600    1.5360 ho        1 MOL      0.345215
    173 O25        -1.4390   -0.0240    3.0350 oh        1 MOL     -0.677325
    174 H79        -1.2570    0.2630    3.9410 ho        1 MOL      0.345215
    175 H80        -0.6610    0.2420    2.5420 ho        1 MOL      0.345215
@<TRIPOS>BOND
     1    1    2 1   
     2    1    4 1   
     3    1    5 1   
     4    1    6 1   
     5    2    3 2   
     6    2    7 1   
     7    7    8 1   
     8    7   15 1   
     9    8    9 1   
    10    8   11 1   
    11    8   16 1   
    12    9   10 2   
    13    9   19 1   
    14   11   12 1   
    15   11   17 1   
    16   11   18 1   
    17   12   13 1   
    18   12   14 1   
    19   19   20 1   
    20   19   24 1   
    21   20   21 1   
    22   20   23 1   
    23   20   25 1   
    24   21   22 2   
    25   21   29 1   
    26   23   26 1   
    27   23   27 1   
    28   23   28 1   
    29   29   30 1   
    30   29   37 1   
    31   30   31 1   
    32   30   33 1   
    33   30   38 1   
    34   31   32 2   
    35   31   41 1   
    36   33   34 1   
    37   33   39 1   
    38   33   40 1   
    39   34   35 1   
    40   34   36 1   
    41   41   42 1   
    42   41   45 1   
    43   42   43 1   
    44   42   46 1   
    45   42   47 1   
    46   43   44 2   
    47   43   48 1   
    48   48   49 1   
    49   48   56 1   
    50   49   50 1   
    51   49   52 1   
    52   49   57 1   
    53   50   51 2   
    54   50   62 1   
    55   52   53 1   
    56   52   58 1   
    57   52   59 1   
    58   53   54 1   
    59   53   55 2   
    60   54   60 1   
    61   54   61 1   
    62   62   63 1   
    63   62   66 1   
    64   63   64 1   
    65   63   67 1   
    66   63   68 1   
    67   64   65 2   
    68   64   69 1   
    69   69   70 1   
    70   69   76 1   
    71   70   71 1   
    72   70   73 1   
    73   70   77 1   
    74   71   72 2   
    75   71   83 1   
    76   73   74 1   
    77   73   75 1   
    78   73   78 1   
    79   74   80 1   
    80   74   81 1   
    81   74   82 1   
    82   75   79 1   
    83   83   84 1   
    84   83   91 1   
    85   84   85 1   
    86   84   87 1   
    87   84   92 1   
    88   85   86 2   
    89   85  102 1   
    90   87   88 1   
    91   87   89 1   
    92   87   93 1   
    93   88   90 1   
    94   88   94 1   
    95   88   95 1   
    96   89   96 1   
    97   89   97 1   
    98   89   98 1   
    99   90   99 1   
   100   90  100 1   
   101   90  101 1   
   102  102  103 1   
   103  102  110 1   
   104  103  104 1   
   105  103  106 1   
   106  103  111 1   
   107  104  105 2   
   108  104  114 1   
   109  106  107 1   
   110  106  112 1   
   111  106  113 1   
   112  107  108 1   
   113  107  109 1   
   114  114  115 1   
   115  114  125 1   
   116  115  116 1   
   117  115  118 1   
   118  115  126 1   
   119  116  117 2   
   120  116  134 1   
   121  118  119 1   
   122  118  127 1   
   123  118  128 1   
   124  119  120 ar  
   125  119  121 ar  
   126  120  122 ar  
   127  120  129 1   
   128  121  123 ar  
   129  121  130 1   
   130  122  124 ar  
   131  122  131 1   
   132  123  124 ar  
   133  123  132 1   
   134  124  133 1   
   135  134  135 1   
   136  134  140 1   
   137  135  136 1   
   138  135  138 1   
   139  135  141 1   
   140  136  137 2   
   141  136  148 1   
   142  138  139 1   
   143  138  142 1   
   144  138  143 1   
   145  139  140 1   
   146  139  144 1   
   147  139  145 1   
   148  140  146 1   
   149  140  147 1   
   150  148  149 1   
   151  148  157 1   
   152  149  150 1   
   153  149  152 1   
   154  149  158 1   
   155  150  151 2   
   156  150  163 1   
   157  152  153 1   
   158  152  159 1   
   159  152  160 1   
   160  153  154 1   
   161  153  161 1   
   162  153  162 1   
   163  154  155 1   
   164  154  156 1   
   165  163  164 1   
   166  163  168 1   
   167  164  165 1   
   168  164  166 1   
   169  164  167 1   
   170  170  171 1   
   171  170  172 1   
   172  173  174 1   
   173  173  175 1   
@<TRIPOS>SUBSTRUCTURE
     1 MOL         1 TEMP              0 ****  ****    0 ROOT
