@<TRIPOS>MOLECULE
MOL
  189   185     1     0     0
SMALL
resp


@<TRIPOS>ATOM
      1 C1         -0.7240    2.8490    5.8640 c3        1 MOL     -0.376600
      2 C2         -0.8870    2.3910    4.3990 c         1 MOL      0.637534
      3 O1          0.0170    2.4400    3.5980 o         1 MOL     -0.624277
      4 H1         -1.1290    2.0870    6.5290 hc        1 MOL      0.092226
      5 H2          0.3340    2.9960    6.0840 hc        1 MOL      0.092226
      6 H3         -1.2600    3.7860    6.0150 hc        1 MOL      0.092226
      7 N1         -2.0430    1.8120    4.1140 n         1 MOL     -0.509643
      8 C3         -2.3890    1.3590    2.7440 c3        1 MOL      0.552339
      9 C4         -2.7910    2.6400    2.1140 c         1 MOL      0.154369
     10 O2         -3.9720    3.0600    2.4100 o         1 MOL     -0.524757
     11 C5         -3.3910    0.2170    2.6640 c3        1 MOL     -0.661200
     12 C6         -4.1440    0.0140    1.3370 c         1 MOL      1.047867
     13 O3         -5.3210   -0.3770    1.2960 o         1 MOL     -0.677461
     14 O4         -3.6240    0.4230    0.2790 o         1 MOL     -0.677461
     15 H4         -2.7610    1.8150    4.8150 hn        1 MOL      0.308522
     16 H5         -1.4910    1.1030    2.1770 h1        1 MOL     -0.139013
     17 H6         -4.0480    0.2900    3.5420 hc        1 MOL      0.130647
     18 H7         -2.8080   -0.6960    2.7980 hc        1 MOL      0.130647
     19 N2         -1.9750    3.2790    1.2860 n         1 MOL     -0.016506
     20 C7         -2.1920    4.7020    0.8490 c3        1 MOL     -0.518992
     21 C8         -3.1050    4.8700   -0.3730 c         1 MOL      0.699897
     22 O5         -3.4110    5.9960   -0.7560 o         1 MOL     -0.588145
     23 C9         -0.7620    5.3110    0.4920 c3        1 MOL      0.157024
     24 C10         0.3020    5.2330    1.6000 c3        1 MOL     -0.088091
     25 C11        -0.1630    5.6730    2.9750 c3        1 MOL     -0.115898
     26 C12        -0.3990    7.2180    3.0640 c3        1 MOL      0.131193
     27 N3         -0.6740    7.6630    4.4840 n4        1 MOL     -0.446251
     28 H8         -1.1880    2.7140    1.0020 hn        1 MOL      0.329782
     29 H9         -2.5510    5.2510    1.7140 h1        1 MOL      0.187430
     30 H10        -0.7340    6.3450    0.1810 hc        1 MOL      0.003284
     31 H11        -0.3260    4.7990   -0.3650 hc        1 MOL      0.003284
     32 H12         1.1410    5.8120    1.2300 hc        1 MOL      0.044876
     33 H13         0.5910    4.1730    1.6120 hc        1 MOL      0.044876
     34 H14         0.6420    5.5230    3.6980 hc        1 MOL      0.071084
     35 H15        -1.0540    5.1690    3.3300 hc        1 MOL      0.071084
     36 H16        -1.2900    7.4770    2.4940 hx        1 MOL      0.056798
     37 H17         0.4750    7.7350    2.6740 hx        1 MOL      0.056798
     38 H18        -1.5960    7.3390    4.7430 hn        1 MOL      0.343270
     39 H19         0.0190    7.3210    5.1200 hn        1 MOL      0.343270
     40 H20        -0.6550    8.6740    4.5640 hn        1 MOL      0.343270
     41 N4         -3.6370    3.7790   -0.9870 n         1 MOL     -0.351017
     42 C13        -4.5450    3.7850   -2.1410 c3        1 MOL      0.080348
     43 C14        -5.8840    3.0450   -1.9940 c         1 MOL      0.343365
     44 O6         -6.9040    3.2710   -2.6880 o         1 MOL     -0.513651
     45 C15        -3.9160    3.5220   -3.5510 c3        1 MOL     -0.253496
     46 C16        -2.7500    2.6050   -3.3300 c         1 MOL      0.772640
     47 O7         -2.7780    1.6580   -2.4780 o         1 MOL     -0.704938
     48 O8         -1.7610    2.8670   -3.9800 o         1 MOL     -0.704938
     49 H21        -3.2260    2.8870   -0.7310 hn        1 MOL      0.161242
     50 H22        -4.8950    4.8130   -2.2250 h1        1 MOL      0.076921
     51 H23        -3.5490    4.4250   -4.0230 hc        1 MOL      0.079097
     52 H24        -4.6230    2.9900   -4.1920 hc        1 MOL      0.079097
     53 N5         -6.0230    2.0810   -1.0490 n         1 MOL     -0.042317
     54 C17        -7.2570    1.3410   -0.7800 c3        1 MOL     -0.228813
     55 C18        -7.3740    0.1550   -1.5740 c         1 MOL      0.759018
     56 O9         -8.2210   -0.0190   -2.4010 o         1 MOL     -0.609418
     57 H25        -5.2870    1.6460   -0.5160 hn        1 MOL      0.097438
     58 H26        -8.1020    2.0040   -0.9670 h1        1 MOL      0.078557
     59 H27        -7.3070    1.1700    0.2920 h1        1 MOL      0.078557
     60 N6         -6.5630   -0.8560   -1.3480 n         1 MOL     -0.494692
     61 C19        -6.6240   -2.2090   -1.9710 c3        1 MOL      0.136236
     62 C20        -6.5090   -3.3680   -0.9070 c         1 MOL      0.477326
     63 O10        -6.3710   -4.5160   -1.2930 o         1 MOL     -0.542750
     64 C21        -5.5230   -2.2890   -3.1080 c3        1 MOL     -0.249729
     65 C22        -4.1170   -2.1680   -2.5730 c         1 MOL      0.899104
     66 O11        -3.7680   -2.5900   -1.4570 o         1 MOL     -0.839806
     67 O12        -3.3670   -1.3190   -3.1830 o         1 MOL     -0.839806
     68 H28        -5.8540   -0.6760   -0.6410 hn        1 MOL      0.163797
     69 H29        -7.6220   -2.3840   -2.3780 h1        1 MOL      0.077014
     70 H30        -5.7130   -1.5210   -3.8510 hc        1 MOL      0.077981
     71 H31        -5.6940   -3.2150   -3.6470 hc        1 MOL      0.077981
     72 N7         -6.4040   -2.9480    0.3150 n         1 MOL     -0.412055
     73 C23        -6.2320   -3.9080    1.4910 c3        1 MOL     -0.026899
     74 C24        -4.8240   -4.4520    1.7510 c         1 MOL      0.465736
     75 O13        -4.7490   -5.3960    2.5550 o         1 MOL     -0.569440
     76 H32        -6.2000   -1.9660    0.4650 hn        1 MOL      0.275844
     77 H33        -6.7790   -4.8430    1.3640 h1        1 MOL      0.091446
     78 H34        -6.5850   -3.5190    2.4500 h1        1 MOL      0.091446
     79 N8         -3.8310   -4.0030    1.0110 n         1 MOL     -0.039957
     80 C25        -2.5300   -4.5580    1.1570 c3        1 MOL     -0.314965
     81 C26        -1.4450   -3.5110    1.2170 c         1 MOL      0.764956
     82 O14        -1.6220   -2.3210    0.8640 o         1 MOL     -0.656015
     83 C27        -2.2240   -5.5430    0.0130 c3        1 MOL      0.525139
     84 C28        -3.0630   -6.7910    0.0380 c3        1 MOL     -0.493636
     85 O15        -2.4400   -4.8620   -1.2270 oh        1 MOL     -0.669167
     86 H35        -3.9920   -3.2030    0.4200 hn        1 MOL      0.000542
     87 H36        -2.4250   -5.1500    2.0640 h1        1 MOL      0.106165
     88 H37        -1.2170   -5.9450    0.0600 h1        1 MOL      0.002879
     89 H38        -3.0630   -4.1760   -0.9950 ho        1 MOL      0.476715
     90 H39        -4.1280   -6.6090   -0.0770 hc        1 MOL      0.125010
     91 H40        -2.5860   -7.3480   -0.7760 hc        1 MOL      0.125010
     92 H41        -2.8330   -7.3670    0.9430 hc        1 MOL      0.125010
     93 N9         -0.2610   -3.9680    1.6340 n         1 MOL     -0.687253
     94 C29         0.9940   -3.2040    1.7310 c3        1 MOL      0.362988
     95 C30         2.0110   -3.6870    0.6680 c         1 MOL      0.289133
     96 O16         2.2170   -4.9350    0.6040 o         1 MOL     -0.515423
     97 C31         1.4140   -3.3100    3.2180 c3        1 MOL      0.068724
     98 C32         0.5320   -2.4210    4.1830 c3        1 MOL     -0.168591
     99 C33         2.9120   -3.1220    3.4820 c3        1 MOL     -0.270613
    100 C34         0.7710   -0.9350    3.9920 c3        1 MOL      0.025775
    101 H42        -0.3320   -4.8740    2.0600 hn        1 MOL      0.306440
    102 H43         0.8630   -2.1410    1.5540 h1        1 MOL      0.000446
    103 H44         1.2010   -4.3340    3.5330 hc        1 MOL      0.024299
    104 H45         0.8500   -2.6500    5.1950 hc        1 MOL      0.046042
    105 H46        -0.5220   -2.6550    4.0810 hc        1 MOL      0.046042
    106 H47         3.4020   -2.2590    3.0270 hc        1 MOL      0.058493
    107 H48         3.0470   -3.0700    4.5640 hc        1 MOL      0.058493
    108 H49         3.5100   -3.9580    3.1410 hc        1 MOL      0.058493
    109 H50         0.0020   -0.4070    4.5550 hc        1 MOL      0.026145
    110 H51         1.7530   -0.6370    4.3490 hc        1 MOL      0.026145
    111 H52         0.7110   -0.5930    2.9580 hc        1 MOL      0.026145
    112 N10         2.7510   -2.7790   -0.0100 n         1 MOL     -0.124162
    113 C35         3.8540   -2.9950   -0.9680 c3        1 MOL     -0.042458
    114 C36         5.2360   -2.5170   -0.3690 c         1 MOL      0.354162
    115 O17         5.3020   -1.9010    0.6790 o         1 MOL     -0.328331
    116 C37         3.5870   -2.2660   -2.3350 c3        1 MOL      0.155870
    117 C38         2.2490   -2.8340   -2.9300 c3        1 MOL     -0.202729
    118 O18         3.3960   -0.8490   -2.0850 oh        1 MOL     -0.581974
    119 H53         2.2720   -1.8910   -0.0840 hn        1 MOL      0.261046
    120 H54         3.9540   -4.0470   -1.2580 h1        1 MOL      0.085747
    121 H55         4.2650   -2.3610   -3.1770 h1        1 MOL      0.052303
    122 H56         2.4500   -0.7900   -1.9630 ho        1 MOL      0.369971
    123 H57         2.3240   -3.9220   -2.9900 hc        1 MOL      0.073310
    124 H58         1.4150   -2.5350   -2.2990 hc        1 MOL      0.073310
    125 H59         2.2220   -2.4760   -3.9600 hc        1 MOL      0.073310
    126 N11         6.3330   -2.7280   -1.1070 n         1 MOL     -0.306614
    127 C39         7.7250   -2.3180   -0.6680 c3        1 MOL     -0.187201
    128 C40         7.7770   -0.7870   -0.5170 c         1 MOL      0.430540
    129 O19         8.4410   -0.3090    0.4140 o         1 MOL     -0.479101
    130 C41         8.7780   -2.7720   -1.7060 c3        1 MOL      0.410988
    131 C42        10.1420   -2.6550   -1.0330 c3        1 MOL     -0.339643
    132 O20         8.5590   -4.1540   -1.9640 oh        1 MOL     -0.598693
    133 H60         6.2900   -3.2590   -1.9630 hn        1 MOL      0.199419
    134 H61         7.9550   -2.7460    0.3130 h1        1 MOL      0.171809
    135 H62         8.7620   -2.2050   -2.6300 h1        1 MOL     -0.022978
    136 H63         7.6930   -4.2760   -2.3670 ho        1 MOL      0.376561
    137 H64        10.1790   -3.1780   -0.0770 hc        1 MOL      0.105898
    138 H65        10.9000   -3.0490   -1.7030 hc        1 MOL      0.105898
    139 H66        10.3090   -1.6090   -0.7850 hc        1 MOL      0.105898
    140 N12         6.9340   -0.0230   -1.2710 n         1 MOL     -0.263518
    141 C43         6.8690    1.4170   -1.1500 c3        1 MOL     -0.100281
    142 C44         6.0030    1.9090   -0.0330 c         1 MOL      0.516733
    143 O21         6.1910    3.0800    0.3400 o         1 MOL     -0.553886
    144 C45         6.3390    1.9650   -2.4840 c3        1 MOL     -0.173046
    145 C46         6.2610    3.4380   -2.7690 c3        1 MOL      0.124668
    146 C47         5.7460    3.5470   -4.1590 c3        1 MOL     -0.034306
    147 C48         5.2980    4.9850   -4.4700 c3        1 MOL      0.170070
    148 N13         4.5750    4.9430   -5.7460 n4        1 MOL     -0.381475
    149 H67         6.4920   -0.4780   -2.0600 hn        1 MOL      0.207190
    150 H68         7.8960    1.7090   -0.9450 h1        1 MOL      0.126571
    151 H69         5.2980    1.6800   -2.6320 hc        1 MOL      0.066983
    152 H70         6.9250    1.4510   -3.2500 hc        1 MOL      0.066983
    153 H71         7.1950    3.9940   -2.6250 hc        1 MOL      0.004925
    154 H72         5.6410    3.8470   -1.9720 hc        1 MOL      0.004925
    155 H73         4.8950    2.8870   -4.2860 hc        1 MOL      0.015287
    156 H74         6.5680    3.2510   -4.8250 hc        1 MOL      0.015287
    157 H75         6.1700    5.6380   -4.5000 hx        1 MOL      0.039821
    158 H76         4.6780    5.3620   -3.6570 hx        1 MOL      0.039821
    159 H77         4.5030    5.9070   -6.0540 hn        1 MOL      0.333076
    160 H78         5.1150    4.4540   -6.4470 hn        1 MOL      0.333076
    161 H79         3.6380    4.5600   -5.6880 hn        1 MOL      0.333076
    162 N14         5.1850    1.0630    0.6310 n         1 MOL     -0.283890
    163 C49         4.2230    1.3610    1.6750 c3        1 MOL     -0.088654
    164 C50         4.5790    0.6840    2.9980 c         1 MOL      0.532098
    165 O22         4.0850    1.1190    4.0200 o         1 MOL     -0.551945
    166 C51         2.8280    0.7990    1.3660 c3        1 MOL      0.079529
    167 C52         2.1460    1.4560    0.1480 c3        1 MOL      0.048007
    168 C53         0.7920    0.7340   -0.2090 c         1 MOL      0.849354
    169 O23         0.8480   -0.4520   -0.5660 o         1 MOL     -0.798066
    170 O24        -0.2980    1.3330   -0.1360 o         1 MOL     -0.798066
    171 H80         5.1390    0.2190    0.0860 hn        1 MOL      0.179213
    172 H81         4.1570    2.4360    1.8550 h1        1 MOL      0.093368
    173 H82         2.1250    1.1450    2.1290 hc        1 MOL      0.013548
    174 H83         2.8170   -0.2850    1.3320 hc        1 MOL      0.013548
    175 H84         2.7740    1.3580   -0.7330 hc        1 MOL     -0.034184
    176 H85         1.9050    2.5020    0.3270 hc        1 MOL     -0.034184
    177 N15         5.4890   -0.3000    2.9830 n         1 MOL     -0.262720
    178 C54         5.8760   -1.1810    4.0910 c3        1 MOL     -0.212767
    179 H86         5.0160   -1.7760    4.3980 h1        1 MOL      0.102154
    180 H87         6.6770   -1.8430    3.7660 h1        1 MOL      0.102154
    181 H88         6.2200   -0.5780    4.9320 h1        1 MOL      0.102154
    182 H89         5.6570   -0.6430    2.0520 hn        1 MOL      0.163120
    183 Ca1        -1.8150   -0.4760   -1.2930 Ca        1 MOL      1.740803
    184 O25        -0.2760    0.6000   -3.5750 oh        1 MOL     -0.872280
    185 H90        -0.9050    1.3040   -3.6710 ho        1 MOL      0.407072
    186 H91        -0.5610   -0.0720   -4.1960 ho        1 MOL      0.407072
    187 O26        -1.0290   -2.7920   -2.6180 oh        1 MOL     -0.872280
    188 H92        -1.1420   -3.0700   -3.5230 ho        1 MOL      0.407072
    189 H93        -1.6860   -3.3010   -2.1350 ho        1 MOL      0.407072
@<TRIPOS>BOND
     1    1    2 1   
     2    1    4 1   
     3    1    5 1   
     4    1    6 1   
     5    2    3 2   
     6    2    7 1   
     7    7    8 1   
     8    7   15 1   
     9    8    9 1   
    10    8   11 1   
    11    8   16 1   
    12    9   10 2   
    13    9   19 1   
    14   11   12 1   
    15   11   17 1   
    16   11   18 1   
    17   12   13 1   
    18   12   14 1   
    19   19   20 1   
    20   19   28 1   
    21   20   21 1   
    22   20   23 1   
    23   20   29 1   
    24   21   22 2   
    25   21   41 1   
    26   23   24 1   
    27   23   30 1   
    28   23   31 1   
    29   24   25 1   
    30   24   32 1   
    31   24   33 1   
    32   25   26 1   
    33   25   34 1   
    34   25   35 1   
    35   26   27 1   
    36   26   36 1   
    37   26   37 1   
    38   27   38 1   
    39   27   39 1   
    40   27   40 1   
    41   41   42 1   
    42   41   49 1   
    43   42   43 1   
    44   42   45 1   
    45   42   50 1   
    46   43   44 2   
    47   43   53 1   
    48   45   46 1   
    49   45   51 1   
    50   45   52 1   
    51   46   47 1   
    52   46   48 1   
    53   53   54 1   
    54   53   57 1   
    55   54   55 1   
    56   54   58 1   
    57   54   59 1   
    58   55   56 2   
    59   55   60 1   
    60   60   61 1   
    61   60   68 1   
    62   61   62 1   
    63   61   64 1   
    64   61   69 1   
    65   62   63 2   
    66   62   72 1   
    67   64   65 1   
    68   64   70 1   
    69   64   71 1   
    70   65   66 1   
    71   65   67 1   
    72   72   73 1   
    73   72   76 1   
    74   73   74 1   
    75   73   77 1   
    76   73   78 1   
    77   74   75 2   
    78   74   79 1   
    79   79   80 1   
    80   79   86 1   
    81   80   81 1   
    82   80   83 1   
    83   80   87 1   
    84   81   82 2   
    85   81   93 1   
    86   83   84 1   
    87   83   85 1   
    88   83   88 1   
    89   84   90 1   
    90   84   91 1   
    91   84   92 1   
    92   85   89 1   
    93   93   94 1   
    94   93  101 1   
    95   94   95 1   
    96   94   97 1   
    97   94  102 1   
    98   95   96 2   
    99   95  112 1   
   100   97   98 1   
   101   97   99 1   
   102   97  103 1   
   103   98  100 1   
   104   98  104 1   
   105   98  105 1   
   106   99  106 1   
   107   99  107 1   
   108   99  108 1   
   109  100  109 1   
   110  100  110 1   
   111  100  111 1   
   112  112  113 1   
   113  112  119 1   
   114  113  114 1   
   115  113  116 1   
   116  113  120 1   
   117  114  115 2   
   118  114  126 1   
   119  116  117 1   
   120  116  118 1   
   121  116  121 1   
   122  117  123 1   
   123  117  124 1   
   124  117  125 1   
   125  118  122 1   
   126  126  127 1   
   127  126  133 1   
   128  127  128 1   
   129  127  130 1   
   130  127  134 1   
   131  128  129 2   
   132  128  140 1   
   133  130  131 1   
   134  130  132 1   
   135  130  135 1   
   136  131  137 1   
   137  131  138 1   
   138  131  139 1   
   139  132  136 1   
   140  140  141 1   
   141  140  149 1   
   142  141  142 1   
   143  141  144 1   
   144  141  150 1   
   145  142  143 2   
   146  142  162 1   
   147  144  145 1   
   148  144  151 1   
   149  144  152 1   
   150  145  146 1   
   151  145  153 1   
   152  145  154 1   
   153  146  147 1   
   154  146  155 1   
   155  146  156 1   
   156  147  148 1   
   157  147  157 1   
   158  147  158 1   
   159  148  159 1   
   160  148  160 1   
   161  148  161 1   
   162  162  163 1   
   163  162  171 1   
   164  163  164 1   
   165  163  166 1   
   166  163  172 1   
   167  164  165 2   
   168  164  177 1   
   169  166  167 1   
   170  166  173 1   
   171  166  174 1   
   172  167  168 1   
   173  167  175 1   
   174  167  176 1   
   175  168  169 1   
   176  168  170 1   
   177  177  178 1   
   178  177  182 1   
   179  178  179 1   
   180  178  180 1   
   181  178  181 1   
   182  184  185 1   
   183  184  186 1   
   184  187  188 1   
   185  187  189 1   
@<TRIPOS>SUBSTRUCTURE
     1 MOL         1 TEMP              0 ****  ****    0 ROOT
