@<TRIPOS>MOLECULE
MOL
  189   185     1     0     0
SMALL
resp


@<TRIPOS>ATOM
      1 C1         -0.0710    0.5750    6.1730 c3        1 MOL     -0.375179
      2 C2         -0.7240    1.0370    4.7960 c         1 MOL      0.691944
      3 O1         -0.1010    1.8280    4.0960 o         1 MOL     -0.595339
      4 H1          1.0060    0.4650    6.0460 hc        1 MOL      0.097699
      5 H2         -0.2710    1.3230    6.9400 hc        1 MOL      0.097699
      6 H3         -0.4990   -0.3810    6.4760 hc        1 MOL      0.097699
      7 N1         -1.9570    0.5580    4.5170 n         1 MOL     -0.587824
      8 C3         -2.5440    0.7870    3.1970 c3        1 MOL      0.233582
      9 C4         -2.9950    2.2290    3.0120 c         1 MOL      0.392631
     10 O2         -4.0740    2.6000    3.5060 o         1 MOL     -0.524481
     11 C5         -3.7200   -0.2410    2.9380 c3        1 MOL     -0.166971
     12 C6         -4.4420   -0.1010    1.6440 c         1 MOL      0.681769
     13 O3         -3.7660    0.1260    0.6250 o         1 MOL     -0.672534
     14 O4         -5.7020   -0.2230    1.6470 o         1 MOL     -0.672534
     15 H4         -2.3630   -0.0510    5.2150 hn        1 MOL      0.328948
     16 H5         -1.8510    0.6460    2.3630 h1        1 MOL     -0.023719
     17 H6         -4.4210   -0.2750    3.7680 hc        1 MOL      0.036120
     18 H7         -3.2750   -1.2430    2.9270 hc        1 MOL      0.036120
     19 N2         -2.2090    3.0080    2.3060 n         1 MOL     -0.115053
     20 C7         -2.3480    4.4720    2.3640 c3        1 MOL     -0.140734
     21 C8         -3.4870    4.9570    1.4710 c         1 MOL      0.489865
     22 O5         -3.9820    6.1050    1.5360 o         1 MOL     -0.568150
     23 C9         -0.9850    5.1010    1.8880 c3        1 MOL     -0.062871
     24 C10        -0.4910    4.8460    0.3990 c3        1 MOL     -0.036998
     25 C11         0.9190    5.2520    0.1490 c3        1 MOL     -0.107207
     26 C12         1.4160    4.7160   -1.1950 c3        1 MOL      0.161942
     27 N3          0.5870    5.0240   -2.4030 n4        1 MOL     -0.422078
     28 H8         -1.3820    2.6190    1.8940 hn        1 MOL      0.334789
     29 H9         -2.6400    4.8260    3.3530 h1        1 MOL      0.125934
     30 H10        -0.1950    4.8470    2.5960 hc        1 MOL      0.049961
     31 H11        -1.0730    6.1820    1.9470 hc        1 MOL      0.049961
     32 H12        -1.1440    5.4140   -0.2690 hc        1 MOL      0.051298
     33 H13        -0.5880    3.8000    0.1180 hc        1 MOL      0.051298
     34 H14         1.5170    4.7690    0.9280 hc        1 MOL      0.065505
     35 H15         1.1790    6.3120    0.2080 hc        1 MOL      0.065505
     36 H16         1.5750    3.6380   -1.1570 hx        1 MOL     -0.006293
     37 H17         2.4310    5.0860   -1.3210 hx        1 MOL     -0.006293
     38 H18         0.9850    4.7810   -3.2940 hn        1 MOL      0.320484
     39 H19        -0.2910    4.5160   -2.4320 hn        1 MOL      0.320484
     40 H20         0.3430    6.0070   -2.4350 hn        1 MOL      0.320484
     41 N4         -3.7990    4.1490    0.5000 n         1 MOL     -0.268854
     42 C13        -4.6830    4.4000   -0.6480 c3        1 MOL      0.114534
     43 C14        -5.8430    3.3660   -0.8510 c         1 MOL      0.497252
     44 O6         -6.4220    3.3710   -1.9140 o         1 MOL     -0.523807
     45 C15        -3.8300    4.6790   -1.9240 c3        1 MOL     -0.302446
     46 C16        -2.7820    3.6160   -2.1550 c         1 MOL      0.950039
     47 O7         -1.8970    3.9890   -2.9580 o         1 MOL     -0.794622
     48 O8         -2.5770    2.5830   -1.4520 o         1 MOL     -0.794622
     49 H21        -3.1810    3.3410    0.5160 hn        1 MOL     -0.054159
     50 H22        -5.2530    5.2980   -0.3950 h1        1 MOL      0.081060
     51 H23        -3.2660    5.6030   -1.7760 hc        1 MOL      0.087595
     52 H24        -4.4740    4.8600   -2.7860 hc        1 MOL      0.087595
     53 N5         -6.1460    2.5170    0.1420 n         1 MOL     -0.414069
     54 C17        -7.5060    1.9640    0.2510 c3        1 MOL     -0.167238
     55 C18        -7.7150    0.7280   -0.5430 c         1 MOL      0.486459
     56 O9         -8.7020    0.0170   -0.4310 o         1 MOL     -0.587870
     57 H25        -5.6330    2.5500    1.0230 hn        1 MOL      0.330406
     58 H26        -8.1560    2.7990   -0.0240 h1        1 MOL      0.132245
     59 H27        -7.7260    1.9180    1.3160 h1        1 MOL      0.132245
     60 N6         -6.7670    0.3080   -1.3530 n         1 MOL     -0.146569
     61 C19        -6.8780   -0.9000   -2.2470 c3        1 MOL     -0.032795
     62 C20        -6.7720   -2.3130   -1.6410 c         1 MOL      0.394449
     63 O10        -7.0180   -3.3660   -2.3000 o         1 MOL     -0.554657
     64 C21        -5.8320   -0.7290   -3.3340 c3        1 MOL     -0.179419
     65 C22        -4.4160   -0.5200   -2.9210 c         1 MOL      0.697383
     66 O11        -3.9110   -1.3890   -2.1300 o         1 MOL     -0.688080
     67 O12        -3.7090    0.3990   -3.3920 o         1 MOL     -0.688080
     68 H28        -6.0770    1.0060   -1.6160 hn        1 MOL      0.156901
     69 H29        -7.8450   -0.8860   -2.7460 h1        1 MOL      0.102401
     70 H30        -6.2210    0.1020   -3.9290 hc        1 MOL      0.051477
     71 H31        -5.8900   -1.6270   -3.9580 hc        1 MOL      0.051477
     72 N7         -6.4420   -2.3360   -0.3540 n         1 MOL     -0.147189
     73 C23        -6.3330   -3.5520    0.4460 c3        1 MOL     -0.206644
     74 C24        -5.1380   -4.3950    0.0790 c         1 MOL      0.506603
     75 O13        -5.1450   -5.5460    0.5550 o         1 MOL     -0.563886
     76 H32        -6.3880   -1.4240    0.0780 hn        1 MOL      0.294746
     77 H33        -7.2780   -4.0810    0.3340 h1        1 MOL      0.114157
     78 H34        -6.3460   -3.2190    1.4960 h1        1 MOL      0.114157
     79 N8         -4.1240   -3.8820   -0.6020 n         1 MOL     -0.084202
     80 C25        -2.8100   -4.5320   -0.7210 c3        1 MOL     -0.373234
     81 C26        -1.6110   -3.6180   -0.3000 c         1 MOL      0.901634
     82 O14        -1.6760   -2.4410   -0.4680 o         1 MOL     -0.731722
     83 C27        -2.6270   -5.1550   -2.1260 c3        1 MOL      0.489547
     84 C28        -3.5140   -6.2960   -2.3420 c3        1 MOL     -0.352466
     85 O15        -2.8790   -4.1230   -3.0490 oh        1 MOL     -0.624741
     86 H35        -4.2260   -2.8950   -0.7850 hn        1 MOL      0.123372
     87 H36        -2.6770   -5.3140    0.0260 h1        1 MOL      0.079716
     88 H37        -1.6230   -5.5250   -2.3080 h1        1 MOL      0.007117
     89 H38        -3.8050   -3.9850   -2.8620 ho        1 MOL      0.393116
     90 H39        -4.5010   -5.8980   -2.5940 hc        1 MOL      0.086100
     91 H40        -3.1600   -6.8610   -3.2010 hc        1 MOL      0.086100
     92 H41        -3.5040   -6.9650   -1.4810 hc        1 MOL      0.086100
     93 N9         -0.5230   -4.2550    0.1770 n         1 MOL     -0.787580
     94 C29         0.6130   -3.5220    0.8270 c3        1 MOL      0.152945
     95 C30         1.8310   -3.6240   -0.0720 c         1 MOL      0.519630
     96 O16         2.2600   -4.7560   -0.2730 o         1 MOL     -0.550609
     97 C31         0.8750   -3.9870    2.2590 c3        1 MOL      0.165870
     98 C32        -0.3740   -4.4280    3.0420 c3        1 MOL      0.146421
     99 C33         1.7140   -2.9160    2.9550 c3        1 MOL     -0.204764
    100 C34        -0.0790   -4.6970    4.4530 c3        1 MOL     -0.111543
    101 H42        -0.5820   -5.2340    0.4200 hn        1 MOL      0.355349
    102 H43         0.3460   -2.4770    0.9230 h1        1 MOL      0.094553
    103 H44         1.4820   -4.8750    2.0950 hc        1 MOL     -0.036076
    104 H45        -0.8320   -5.2910    2.5600 hc        1 MOL     -0.035200
    105 H46        -1.0790   -3.5960    2.9000 hc        1 MOL     -0.035200
    106 H47         1.8940   -3.1430    3.9990 hc        1 MOL      0.012510
    107 H48         2.6970   -2.8470    2.4880 hc        1 MOL      0.012510
    108 H49         1.2900   -1.9190    2.7870 hc        1 MOL      0.012510
    109 H50        -0.9200   -5.2540    4.8690 hc        1 MOL      0.022180
    110 H51         0.8450   -5.2320    4.6550 hc        1 MOL      0.022180
    111 H52        -0.1260   -3.7090    4.9310 hc        1 MOL      0.022180
    112 N10         2.2980   -2.5000   -0.6230 n         1 MOL     -0.097447
    113 C35         3.5410   -2.3900   -1.4120 c3        1 MOL     -0.380337
    114 C36         4.8220   -2.4580   -0.5570 c         1 MOL      0.542392
    115 O17         4.8040   -2.2140    0.6790 o         1 MOL     -0.435059
    116 C37         3.5480   -1.0930   -2.2850 c3        1 MOL      0.404316
    117 C38         2.4820   -1.1420   -3.4240 c3        1 MOL     -0.581086
    118 O18         3.4000    0.0240   -1.5020 oh        1 MOL     -0.556620
    119 H53         1.8520   -1.5990   -0.4940 hn        1 MOL      0.124636
    120 H54         3.4990   -3.2830   -2.0470 h1        1 MOL      0.141969
    121 H55         4.4960   -0.9410   -2.8050 h1        1 MOL     -0.021111
    122 H56         2.4770    0.1220   -1.2550 ho        1 MOL      0.356036
    123 H57         2.7660   -0.3860   -4.1490 hc        1 MOL      0.169264
    124 H58         2.4150   -2.1490   -3.8410 hc        1 MOL      0.169264
    125 H59         1.5550   -0.8200   -2.9480 hc        1 MOL      0.169264
    126 N11         5.9920   -2.4540   -1.2250 n         1 MOL     -0.387611
    127 C39         7.2590   -2.4500   -0.5190 c3        1 MOL      0.031479
    128 C40         7.4380   -1.1740    0.2670 c         1 MOL      0.057205
    129 O19         7.9500   -1.1820    1.4430 o         1 MOL     -0.418838
    130 C41         8.4730   -2.6390   -1.4200 c3        1 MOL      0.371693
    131 C42         8.8070   -4.0760   -1.5480 c3        1 MOL     -0.532707
    132 O20         8.2060   -2.3630   -2.7360 oh        1 MOL     -0.575923
    133 H60         6.0770   -2.6350   -2.2100 hn        1 MOL      0.251503
    134 H61         7.2840   -3.2240    0.2560 h1        1 MOL      0.123784
    135 H62         9.3440   -2.0590   -1.0980 h1        1 MOL      0.034821
    136 H63         8.0410   -1.4230   -2.8320 ho        1 MOL      0.333855
    137 H64         8.0680   -4.5490   -2.1870 hc        1 MOL      0.156889
    138 H65         9.8370   -4.1810   -1.8930 hc        1 MOL      0.156889
    139 H66         8.8460   -4.5430   -0.5570 hc        1 MOL      0.156889
    140 N12         7.0760   -0.0200   -0.3310 n         1 MOL     -0.129656
    141 C43         7.2830    1.2990    0.2660 c3        1 MOL      0.070430
    142 C44         6.2360    1.5480    1.3130 c         1 MOL      0.278018
    143 O21         6.5330    2.1360    2.3050 o         1 MOL     -0.477260
    144 C45         7.2180    2.4290   -0.7810 c3        1 MOL     -0.248838
    145 C46         8.4780    2.5630   -1.6440 c3        1 MOL     -0.487185
    146 C47         8.1450    3.4700   -2.8240 c3        1 MOL     -0.022560
    147 C48         9.4240    3.7520   -3.6070 c3        1 MOL      0.094307
    148 N13         9.0050    4.1150   -5.0300 n4        1 MOL     -0.433867
    149 H67         6.9310   -0.0500   -1.3330 hn        1 MOL      0.263017
    150 H68         8.2020    1.4030    0.8290 h1        1 MOL      0.103080
    151 H69         7.2000    3.3090   -0.1290 hc        1 MOL      0.130205
    152 H70         6.3570    2.2240   -1.4220 hc        1 MOL      0.130205
    153 H71         8.7860    1.5580   -1.9270 hc        1 MOL      0.187575
    154 H72         9.1980    3.1110   -1.0190 hc        1 MOL      0.187575
    155 H73         7.7660    4.4210   -2.4650 hc        1 MOL      0.065300
    156 H74         7.4290    2.9510   -3.4660 hc        1 MOL      0.065300
    157 H75        10.0360    2.8500   -3.5800 hx        1 MOL      0.088059
    158 H76         9.9890    4.5280   -3.0790 hx        1 MOL      0.088059
    159 H77         9.9000    4.3040   -5.4530 hn        1 MOL      0.330615
    160 H78         8.5370    3.3230   -5.4490 hn        1 MOL      0.330615
    161 H79         8.3920    4.9140   -5.0260 hn        1 MOL      0.330615
    162 N14         5.0600    0.9690    1.2320 n         1 MOL     -0.009252
    163 C49         4.0250    1.0640    2.3430 c3        1 MOL     -0.310227
    164 C50         4.5550    0.2680    3.5560 c         1 MOL      0.533469
    165 O22         4.4440    0.6310    4.7240 o         1 MOL     -0.530060
    166 C51         2.6220    0.5240    2.0360 c3        1 MOL      0.162825
    167 C52         1.7850    1.4570    1.1270 c3        1 MOL     -0.162648
    168 C53         0.5700    0.7890    0.4960 c         1 MOL      0.800933
    169 O23        -0.5160    1.2480    0.8570 o         1 MOL     -0.739270
    170 O24         0.6640   -0.1020   -0.4020 o         1 MOL     -0.739270
    171 H80         4.8010    0.5210    0.3580 hn        1 MOL      0.062148
    172 H81         3.9260    2.0860    2.7110 h1        1 MOL      0.136352
    173 H82         2.0930    0.3330    2.9740 hc        1 MOL      0.039474
    174 H83         2.7740   -0.4590    1.5990 hc        1 MOL      0.039474
    175 H84         2.3390    1.9230    0.3050 hc        1 MOL      0.021473
    176 H85         1.3530    2.2260    1.7630 hc        1 MOL      0.021473
    177 N15         5.1250   -0.9610    3.3220 n         1 MOL     -0.118435
    178 C54         5.6460   -1.7940    4.4060 c3        1 MOL     -0.360561
    179 H86         6.2920   -1.1940    5.0460 h1        1 MOL      0.121568
    180 H87         4.8170   -2.1880    4.9950 h1        1 MOL      0.121568
    181 H88         6.2180   -2.6210    3.9860 h1        1 MOL      0.121568
    182 H89         5.1560   -1.4830    2.4540 hn        1 MOL      0.250236
    183 Ca1        -2.0530    0.1770   -1.2190 Ca        1 MOL      1.754242
    184 O25        -1.3600   -1.5610   -3.3640 oh        1 MOL     -0.821372
    185 H90        -0.8520   -2.1020   -3.9540 ho        1 MOL      0.391678
    186 H91        -2.1250   -2.0970   -3.1470 ho        1 MOL      0.391678
    187 O26        -0.3980    1.6000   -3.0830 oh        1 MOL     -0.821372
    188 H92         0.4750    1.9070   -3.3060 ho        1 MOL      0.391678
    189 H93        -0.9860    2.2700   -3.4200 ho        1 MOL      0.391678
@<TRIPOS>BOND
     1    1    2 1   
     2    1    4 1   
     3    1    5 1   
     4    1    6 1   
     5    2    3 2   
     6    2    7 1   
     7    7    8 1   
     8    7   15 1   
     9    8    9 1   
    10    8   11 1   
    11    8   16 1   
    12    9   10 2   
    13    9   19 1   
    14   11   12 1   
    15   11   17 1   
    16   11   18 1   
    17   12   13 1   
    18   12   14 1   
    19   19   20 1   
    20   19   28 1   
    21   20   21 1   
    22   20   23 1   
    23   20   29 1   
    24   21   22 2   
    25   21   41 1   
    26   23   24 1   
    27   23   30 1   
    28   23   31 1   
    29   24   25 1   
    30   24   32 1   
    31   24   33 1   
    32   25   26 1   
    33   25   34 1   
    34   25   35 1   
    35   26   27 1   
    36   26   36 1   
    37   26   37 1   
    38   27   38 1   
    39   27   39 1   
    40   27   40 1   
    41   41   42 1   
    42   41   49 1   
    43   42   43 1   
    44   42   45 1   
    45   42   50 1   
    46   43   44 2   
    47   43   53 1   
    48   45   46 1   
    49   45   51 1   
    50   45   52 1   
    51   46   47 1   
    52   46   48 1   
    53   53   54 1   
    54   53   57 1   
    55   54   55 1   
    56   54   58 1   
    57   54   59 1   
    58   55   56 2   
    59   55   60 1   
    60   60   61 1   
    61   60   68 1   
    62   61   62 1   
    63   61   64 1   
    64   61   69 1   
    65   62   63 2   
    66   62   72 1   
    67   64   65 1   
    68   64   70 1   
    69   64   71 1   
    70   65   66 1   
    71   65   67 1   
    72   72   73 1   
    73   72   76 1   
    74   73   74 1   
    75   73   77 1   
    76   73   78 1   
    77   74   75 2   
    78   74   79 1   
    79   79   80 1   
    80   79   86 1   
    81   80   81 1   
    82   80   83 1   
    83   80   87 1   
    84   81   82 2   
    85   81   93 1   
    86   83   84 1   
    87   83   85 1   
    88   83   88 1   
    89   84   90 1   
    90   84   91 1   
    91   84   92 1   
    92   85   89 1   
    93   93   94 1   
    94   93  101 1   
    95   94   95 1   
    96   94   97 1   
    97   94  102 1   
    98   95   96 2   
    99   95  112 1   
   100   97   98 1   
   101   97   99 1   
   102   97  103 1   
   103   98  100 1   
   104   98  104 1   
   105   98  105 1   
   106   99  106 1   
   107   99  107 1   
   108   99  108 1   
   109  100  109 1   
   110  100  110 1   
   111  100  111 1   
   112  112  113 1   
   113  112  119 1   
   114  113  114 1   
   115  113  116 1   
   116  113  120 1   
   117  114  115 2   
   118  114  126 1   
   119  116  117 1   
   120  116  118 1   
   121  116  121 1   
   122  117  123 1   
   123  117  124 1   
   124  117  125 1   
   125  118  122 1   
   126  126  127 1   
   127  126  133 1   
   128  127  128 1   
   129  127  130 1   
   130  127  134 1   
   131  128  129 2   
   132  128  140 1   
   133  130  131 1   
   134  130  132 1   
   135  130  135 1   
   136  131  137 1   
   137  131  138 1   
   138  131  139 1   
   139  132  136 1   
   140  140  141 1   
   141  140  149 1   
   142  141  142 1   
   143  141  144 1   
   144  141  150 1   
   145  142  143 2   
   146  142  162 1   
   147  144  145 1   
   148  144  151 1   
   149  144  152 1   
   150  145  146 1   
   151  145  153 1   
   152  145  154 1   
   153  146  147 1   
   154  146  155 1   
   155  146  156 1   
   156  147  148 1   
   157  147  157 1   
   158  147  158 1   
   159  148  159 1   
   160  148  160 1   
   161  148  161 1   
   162  162  163 1   
   163  162  171 1   
   164  163  164 1   
   165  163  166 1   
   166  163  172 1   
   167  164  165 2   
   168  164  177 1   
   169  166  167 1   
   170  166  173 1   
   171  166  174 1   
   172  167  168 1   
   173  167  175 1   
   174  167  176 1   
   175  168  169 1   
   176  168  170 1   
   177  177  178 1   
   178  177  182 1   
   179  178  179 1   
   180  178  180 1   
   181  178  181 1   
   182  184  185 1   
   183  184  186 1   
   184  187  188 1   
   185  187  189 1   
@<TRIPOS>SUBSTRUCTURE
     1 MOL         1 TEMP              0 ****  ****    0 ROOT
