@<TRIPOS>MOLECULE
MOL
  175   173     1     0     0
SMALL
resp


@<TRIPOS>ATOM
      1 C1          0.0730    5.0160    5.4330 c3        1 MOL     -0.387856
      2 C2         -0.4240    4.6600    4.0670 c         1 MOL      0.640485
      3 O1          0.3870    4.6320    3.1090 o         1 MOL     -0.535535
      4 H1          0.8790    4.3380    5.7130 hc        1 MOL      0.099276
      5 H2          0.4460    6.0400    5.4290 hc        1 MOL      0.099276
      6 H3         -0.7420    4.9280    6.1520 hc        1 MOL      0.099276
      7 N1         -1.7220    4.4220    3.7960 n         1 MOL     -0.579645
      8 C3         -2.1330    3.9070    2.5530 c3        1 MOL      0.211437
      9 C4         -2.0040    4.9310    1.4080 c         1 MOL      0.622303
     10 O2         -2.3480    6.0830    1.6260 o         1 MOL     -0.597962
     11 C5         -3.6160    3.5520    2.6260 c3        1 MOL     -0.371138
     12 C6         -4.0760    2.4820    1.5770 c         1 MOL      0.849090
     13 O3         -3.3910    2.1580    0.5900 o         1 MOL     -0.740758
     14 O4         -5.1890    1.9680    1.6860 o         1 MOL     -0.740758
     15 H4         -2.3120    4.4550    4.6150 hn        1 MOL      0.324517
     16 H5         -1.6170    2.9900    2.2840 h1        1 MOL      0.026402
     17 H6         -4.1880    4.4740    2.4760 hc        1 MOL      0.080524
     18 H7         -3.7100    3.2420    3.6690 hc        1 MOL      0.080524
     19 N2         -1.7660    4.5220    0.1450 n         1 MOL     -0.668065
     20 C7         -1.9540    5.3590   -1.0820 c3        1 MOL      0.538879
     21 C8         -3.0020    4.8290   -2.1590 c         1 MOL      0.364132
     22 O5         -3.0910    5.5170   -3.1830 o         1 MOL     -0.540003
     23 C9         -0.5660    5.5540   -1.6760 c3        1 MOL     -0.210722
     24 H8         -1.4660    3.5760   -0.0610 hn        1 MOL      0.330584
     25 H9         -2.3300    6.3540   -0.8350 h1        1 MOL     -0.050406
     26 H10        -0.1540    4.5630   -1.8820 hc        1 MOL      0.032365
     27 H11        -0.6840    6.1870   -2.5580 hc        1 MOL      0.032365
     28 H12         0.1220    6.0360   -0.9710 hc        1 MOL      0.032365
     29 N3         -3.7260    3.7300   -1.8540 n         1 MOL     -0.362185
     30 C10        -4.6680    3.2830   -2.8940 c3        1 MOL      0.071450
     31 C11        -6.0370    2.7550   -2.4310 c         1 MOL      0.340436
     32 O6         -7.0400    2.8030   -3.1570 o         1 MOL     -0.532961
     33 C12        -3.9510    2.2510   -3.7490 c3        1 MOL     -0.043389
     34 C13        -3.0850    1.3290   -2.9540 c         1 MOL      0.723282
     35 O7         -3.5480    0.5260   -2.1510 o         1 MOL     -0.691767
     36 O8         -1.8690    1.4500   -3.1910 o         1 MOL     -0.691767
     37 H13        -3.6580    3.3430   -0.9260 hn        1 MOL      0.189178
     38 H14        -4.9740    4.1670   -3.4600 h1        1 MOL      0.078811
     39 H15        -3.4130    2.8150   -4.5170 hc        1 MOL      0.007745
     40 H16        -4.6030    1.7210   -4.4440 hc        1 MOL      0.007745
     41 N4         -6.0810    2.0910   -1.2300 n         1 MOL     -0.055553
     42 C14        -7.2840    1.4530   -0.7640 c3        1 MOL     -0.440928
     43 C15        -7.4170    0.0680   -1.4140 c         1 MOL      0.664426
     44 O9         -8.4670   -0.5020   -1.2830 o         1 MOL     -0.624913
     45 H17        -5.2260    1.9760   -0.6970 hn        1 MOL      0.162580
     46 H18        -8.0310    2.1170   -1.2040 h1        1 MOL      0.165155
     47 H19        -7.3200    1.2330    0.3040 h1        1 MOL      0.165155
     48 N5         -6.3150   -0.5290   -1.8960 n         1 MOL     -0.277135
     49 C16        -6.1480   -1.9110   -2.2570 c3        1 MOL     -0.237076
     50 C17        -6.1560   -2.9570   -1.1270 c         1 MOL      0.503756
     51 O10        -6.0790   -4.1190   -1.4080 o         1 MOL     -0.496500
     52 C18        -4.9570   -2.1660   -3.1980 c3        1 MOL     -0.021418
     53 C19        -3.6180   -2.4410   -2.5760 c         1 MOL      0.549168
     54 N6         -2.8890   -3.3150   -3.2880 n         1 MOL     -0.683467
     55 O11        -3.2670   -2.0990   -1.4850 o         1 MOL     -0.443924
     56 H20        -5.4650    0.0040   -1.8190 hn        1 MOL      0.160406
     57 H21        -6.9570   -2.2080   -2.9260 h1        1 MOL      0.155787
     58 H22        -4.7960   -1.3470   -3.8970 hc        1 MOL      0.033065
     59 H23        -5.2580   -2.9800   -3.8650 hc        1 MOL      0.033065
     60 H24        -3.2420   -3.6620   -4.1640 hn        1 MOL      0.327939
     61 H25        -2.2240   -3.8390   -2.7320 hn        1 MOL      0.327939
     62 N7         -6.3860   -2.5160    0.1610 n         1 MOL     -0.271151
     63 C20        -6.5370   -3.4070    1.2810 c3        1 MOL     -0.188379
     64 C21        -5.3170   -4.1640    1.7760 c         1 MOL      0.527520
     65 O12        -5.5380   -5.0750    2.5730 o         1 MOL     -0.587104
     66 H26        -6.5300   -1.5430    0.3950 hn        1 MOL      0.290474
     67 H27        -7.3590   -4.1040    1.1030 h1        1 MOL      0.095696
     68 H28        -6.8820   -2.7160    2.0520 h1        1 MOL      0.095696
     69 N8         -4.0920   -3.9140    1.3010 n         1 MOL     -0.206496
     70 C22        -2.8130   -4.4960    1.7860 c3        1 MOL     -0.026282
     71 C23        -1.6860   -3.4330    1.7170 c         1 MOL      0.461935
     72 O13        -1.7710   -2.3750    1.0720 o         1 MOL     -0.586047
     73 C24        -2.4780   -5.7620    1.0090 c3        1 MOL      0.623878
     74 C25        -3.1570   -7.0310    1.5500 c3        1 MOL     -0.508903
     75 O14        -2.8680   -5.8100   -0.3410 oh        1 MOL     -0.622058
     76 H29        -3.9540   -3.1260    0.6790 hn        1 MOL      0.119333
     77 H30        -2.9880   -4.7090    2.8400 h1        1 MOL      0.040337
     78 H31        -1.4070   -5.9360    1.0890 h1        1 MOL     -0.094988
     79 H32        -2.1440   -5.3230   -0.7560 ho        1 MOL      0.377515
     80 H33        -2.9200   -7.0350    2.6120 hc        1 MOL      0.119558
     81 H34        -4.2380   -6.8580    1.4900 hc        1 MOL      0.119558
     82 H35        -2.8750   -7.9430    1.0320 hc        1 MOL      0.119558
     83 N9         -0.6030   -3.7170    2.4280 n         1 MOL     -0.452816
     84 C26         0.6360   -2.8910    2.3140 c3        1 MOL      0.061634
     85 C27         1.5050   -3.2250    1.0370 c         1 MOL      0.461627
     86 O15         1.7220   -4.4530    0.6990 o         1 MOL     -0.590513
     87 C28         1.4600   -2.8960    3.6100 c3        1 MOL     -0.112518
     88 C29         0.8260   -2.0510    4.8060 c3        1 MOL     -0.364413
     89 C30         2.9350   -2.4410    3.4870 c3        1 MOL     -0.068866
     90 C31         0.8930   -0.5320    4.5650 c3        1 MOL      0.152507
     91 H36        -0.5690   -4.6030    2.9290 hn        1 MOL      0.281503
     92 H37         0.3080   -1.8910    2.0520 h1        1 MOL      0.247741
     93 H38         1.3480   -3.9080    4.0100 hc        1 MOL      0.058692
     94 H39         1.5370   -2.3150    5.5880 hc        1 MOL      0.102132
     95 H40        -0.2200   -2.3020    4.9890 hc        1 MOL      0.102132
     96 H41         3.4250   -2.4280    4.4590 hc        1 MOL      0.034149
     97 H42         3.6090   -3.0700    2.8920 hc        1 MOL      0.034149
     98 H43         2.9410   -1.4430    3.0570 hc        1 MOL      0.034149
     99 H44         0.4490   -0.1980    3.6310 hc        1 MOL     -0.034882
    100 H45         0.3010   -0.0230    5.3260 hc        1 MOL     -0.034882
    101 H46         1.9330   -0.1830    4.4960 hc        1 MOL     -0.034882
    102 N10         1.9320   -2.2010    0.2940 n         1 MOL     -0.084827
    103 C32         2.7360   -2.2400   -0.9890 c3        1 MOL     -0.012417
    104 C33         4.1880   -1.7180   -0.8290 c         1 MOL      0.431882
    105 O16         4.5010   -1.0890    0.1470 o         1 MOL     -0.383158
    106 C34         2.0040   -1.4300   -2.0660 c3        1 MOL     -0.152179
    107 C35         0.6240   -1.8300   -2.2580 c         1 MOL      0.787515
    108 O17        -0.2120   -1.2070   -1.6240 o         1 MOL     -0.739762
    109 O18         0.4900   -2.8180   -3.0220 o         1 MOL     -0.739762
    110 H47         1.6530   -1.2830    0.5970 hn        1 MOL     -0.013735
    111 H48         2.8570   -3.3020   -1.2170 h1        1 MOL      0.067730
    112 H49         2.5520   -1.3950   -3.0100 hc        1 MOL      0.043060
    113 H50         2.0690   -0.3940   -1.7490 hc        1 MOL      0.043060
    114 N11         5.1100   -1.9930   -1.7610 n         1 MOL     -0.585919
    115 C36         6.5110   -1.6180   -1.4630 c3        1 MOL      0.427288
    116 C37         6.7650   -0.1150   -1.0970 c         1 MOL      0.062736
    117 O19         7.5690    0.1600   -0.1800 o         1 MOL     -0.447623
    118 C38         7.4410   -2.0530   -2.5980 c3        1 MOL     -0.145330
    119 C39         8.9420   -1.9220   -2.2330 ca        1 MOL      0.081526
    120 C40         9.4260   -2.5220   -1.0150 ca        1 MOL     -0.239265
    121 C41         9.7400   -1.0210   -2.9880 ca        1 MOL     -0.239265
    122 C42        10.7360   -2.3140   -0.6370 ca        1 MOL      0.025934
    123 C43        11.1210   -0.9560   -2.5920 ca        1 MOL      0.025934
    124 C44        11.5840   -1.6220   -1.4840 ca        1 MOL     -0.231999
    125 H51         4.8920   -2.6830   -2.4700 hn        1 MOL      0.311165
    126 H52         6.7690   -2.2990   -0.6610 h1        1 MOL      0.041253
    127 H53         7.3230   -1.4720   -3.5120 hc        1 MOL      0.039130
    128 H54         7.2710   -3.1110   -2.8110 hc        1 MOL      0.039130
    129 H55         8.8190   -3.0910   -0.3290 ha        1 MOL      0.144111
    130 H56         9.4250   -0.4880   -3.8750 ha        1 MOL      0.144111
    131 H57        11.0910   -2.7890    0.2710 ha        1 MOL      0.071146
    132 H58        11.8750   -0.4700   -3.2100 ha        1 MOL      0.071146
    133 H59        12.6180   -1.4230   -1.2610 ha        1 MOL      0.113190
    134 N12         6.2070    0.9010   -1.7930 n         1 MOL      0.173360
    135 C45         6.4100    2.2600   -1.4020 c3        1 MOL      0.020934
    136 C46         5.8440    2.7240   -0.0020 c         1 MOL      0.218040
    137 O20         6.2270    3.7860    0.5600 o         1 MOL     -0.483209
    138 C47         5.8460    3.1280   -2.5490 c3        1 MOL     -0.121763
    139 C48         5.6470    2.1010   -3.7040 c3        1 MOL     -0.032343
    140 C49         5.4520    0.7290   -3.0140 c3        1 MOL     -0.103827
    141 H60         7.4760    2.4960   -1.4190 h1        1 MOL      0.068546
    142 H61         4.8750    3.5010   -2.2160 hc        1 MOL      0.062396
    143 H62         6.6220    3.8190   -2.8690 hc        1 MOL      0.062396
    144 H63         4.7580    2.3510   -4.2730 hc        1 MOL      0.021181
    145 H64         6.5290    2.0230   -4.3370 hc        1 MOL      0.021181
    146 H65         4.3770    0.6190   -2.9090 h1        1 MOL      0.062193
    147 H66         5.7500   -0.1350   -3.6120 h1        1 MOL      0.062193
    148 N13         4.8810    1.9360    0.4760 n         1 MOL      0.042024
    149 C50         4.1820    2.1810    1.6700 c3        1 MOL     -0.103980
    150 C51         4.9760    1.5460    2.7880 c         1 MOL      0.467054
    151 O21         5.2620    2.1870    3.7720 o         1 MOL     -0.570888
    152 C52         2.8080    1.5150    1.6200 c3        1 MOL     -0.006007
    153 C53         1.8280    2.1240    0.6780 c3        1 MOL     -0.098014
    154 C54         0.4490    1.4660    0.6160 c         1 MOL      0.567924
    155 O22         0.3230    0.2730    0.9980 o         1 MOL     -0.631800
    156 O23        -0.4660    1.9960    0.0350 o         1 MOL     -0.631800
    157 H67         4.5390    1.1940   -0.1240 hn        1 MOL      0.089852
    158 H68         4.0170    3.2350    1.8580 h1        1 MOL      0.104810
    159 H69         2.2600    1.5030    2.5600 hc        1 MOL      0.036021
    160 H70         2.8590    0.4700    1.3070 hc        1 MOL      0.036021
    161 H71         2.2550    2.0760   -0.3240 hc        1 MOL      0.057643
    162 H72         1.7500    3.1710    0.9500 hc        1 MOL      0.057643
    163 N14         5.4580    0.3240    2.6150 n         1 MOL     -0.047369
    164 C55         6.4840   -0.3600    3.5220 c3        1 MOL     -0.244358
    165 H73         6.9240   -1.2070    2.9960 h1        1 MOL      0.097152
    166 H74         7.2680    0.3500    3.7850 h1        1 MOL      0.097152
    167 H75         5.9910   -0.7100    4.4280 h1        1 MOL      0.097152
    168 H76         5.2210   -0.0820    1.7210 hn        1 MOL      0.041365
    169 Ca1        -2.0390   -0.0240    0.0100 Ca        1 MOL      1.722240
    170 O24        -2.1020    0.0600    2.8310 oh        1 MOL     -0.813763
    171 H77        -2.7400    0.1030    3.5360 ho        1 MOL      0.394814
    172 H78        -1.2740   -0.1810    3.2550 ho        1 MOL      0.394814
    173 O25        -4.5920   -0.5920    0.9300 oh        1 MOL     -0.813763
    174 H79        -5.0540    0.2430    0.9300 ho        1 MOL      0.394814
    175 H80        -4.7810   -0.9640    1.7900 ho        1 MOL      0.394814
@<TRIPOS>BOND
     1    1    2 1   
     2    1    4 1   
     3    1    5 1   
     4    1    6 1   
     5    2    3 2   
     6    2    7 1   
     7    7    8 1   
     8    7   15 1   
     9    8    9 1   
    10    8   11 1   
    11    8   16 1   
    12    9   10 2   
    13    9   19 1   
    14   11   12 1   
    15   11   17 1   
    16   11   18 1   
    17   12   13 1   
    18   12   14 1   
    19   19   20 1   
    20   19   24 1   
    21   20   21 1   
    22   20   23 1   
    23   20   25 1   
    24   21   22 2   
    25   21   29 1   
    26   23   26 1   
    27   23   27 1   
    28   23   28 1   
    29   29   30 1   
    30   29   37 1   
    31   30   31 1   
    32   30   33 1   
    33   30   38 1   
    34   31   32 2   
    35   31   41 1   
    36   33   34 1   
    37   33   39 1   
    38   33   40 1   
    39   34   35 1   
    40   34   36 1   
    41   41   42 1   
    42   41   45 1   
    43   42   43 1   
    44   42   46 1   
    45   42   47 1   
    46   43   44 2   
    47   43   48 1   
    48   48   49 1   
    49   48   56 1   
    50   49   50 1   
    51   49   52 1   
    52   49   57 1   
    53   50   51 2   
    54   50   62 1   
    55   52   53 1   
    56   52   58 1   
    57   52   59 1   
    58   53   54 1   
    59   53   55 2   
    60   54   60 1   
    61   54   61 1   
    62   62   63 1   
    63   62   66 1   
    64   63   64 1   
    65   63   67 1   
    66   63   68 1   
    67   64   65 2   
    68   64   69 1   
    69   69   70 1   
    70   69   76 1   
    71   70   71 1   
    72   70   73 1   
    73   70   77 1   
    74   71   72 2   
    75   71   83 1   
    76   73   74 1   
    77   73   75 1   
    78   73   78 1   
    79   74   80 1   
    80   74   81 1   
    81   74   82 1   
    82   75   79 1   
    83   83   84 1   
    84   83   91 1   
    85   84   85 1   
    86   84   87 1   
    87   84   92 1   
    88   85   86 2   
    89   85  102 1   
    90   87   88 1   
    91   87   89 1   
    92   87   93 1   
    93   88   90 1   
    94   88   94 1   
    95   88   95 1   
    96   89   96 1   
    97   89   97 1   
    98   89   98 1   
    99   90   99 1   
   100   90  100 1   
   101   90  101 1   
   102  102  103 1   
   103  102  110 1   
   104  103  104 1   
   105  103  106 1   
   106  103  111 1   
   107  104  105 2   
   108  104  114 1   
   109  106  107 1   
   110  106  112 1   
   111  106  113 1   
   112  107  108 1   
   113  107  109 1   
   114  114  115 1   
   115  114  125 1   
   116  115  116 1   
   117  115  118 1   
   118  115  126 1   
   119  116  117 2   
   120  116  134 1   
   121  118  119 1   
   122  118  127 1   
   123  118  128 1   
   124  119  120 ar  
   125  119  121 ar  
   126  120  122 ar  
   127  120  129 1   
   128  121  123 ar  
   129  121  130 1   
   130  122  124 ar  
   131  122  131 1   
   132  123  124 ar  
   133  123  132 1   
   134  124  133 1   
   135  134  135 1   
   136  134  140 1   
   137  135  136 1   
   138  135  138 1   
   139  135  141 1   
   140  136  137 2   
   141  136  148 1   
   142  138  139 1   
   143  138  142 1   
   144  138  143 1   
   145  139  140 1   
   146  139  144 1   
   147  139  145 1   
   148  140  146 1   
   149  140  147 1   
   150  148  149 1   
   151  148  157 1   
   152  149  150 1   
   153  149  152 1   
   154  149  158 1   
   155  150  151 2   
   156  150  163 1   
   157  152  153 1   
   158  152  159 1   
   159  152  160 1   
   160  153  154 1   
   161  153  161 1   
   162  153  162 1   
   163  154  155 1   
   164  154  156 1   
   165  163  164 1   
   166  163  168 1   
   167  164  165 1   
   168  164  166 1   
   169  164  167 1   
   170  170  171 1   
   171  170  172 1   
   172  173  174 1   
   173  173  175 1   
@<TRIPOS>SUBSTRUCTURE
     1 MOL         1 TEMP              0 ****  ****    0 ROOT
