@<TRIPOS>MOLECULE
MOL
  178   175     1     0     0
SMALL
resp


@<TRIPOS>ATOM
      1 C1          0.7450   -1.9910    6.0620 c3        1 MOL     -0.254285
      2 C2          0.7270   -2.0100    4.5480 c         1 MOL      0.778266
      3 O1          0.0430   -2.7740    3.9650 o         1 MOL     -0.594853
      4 H1          0.4510   -1.0030    6.4160 hc        1 MOL      0.056468
      5 H2          0.0470   -2.7360    6.4440 hc        1 MOL      0.056468
      6 H3          1.7500   -2.2190    6.4170 hc        1 MOL      0.056468
      7 N1          1.6040   -1.2530    3.8940 n         1 MOL     -0.624985
      8 C3          2.0410   -1.3900    2.5180 c3        1 MOL      0.175456
      9 C4          2.5350   -2.7880    2.1760 c         1 MOL      0.472419
     10 O2          3.5300   -3.3110    2.7600 o         1 MOL     -0.550861
     11 C5          3.0570   -0.3200    2.1730 c3        1 MOL     -0.172635
     12 C6          3.4350   -0.2350    0.6830 c         1 MOL      0.262263
     13 O3          2.8080   -0.9330   -0.1170 o         1 MOL     -0.502216
     14 O4          4.3640    0.5290    0.3870 o         1 MOL     -0.502216
     15 H4          2.1320   -0.6200    4.4760 hn        1 MOL      0.283365
     16 H5          1.1780   -1.1600    1.8910 h1        1 MOL      0.043150
     17 H6          3.9270   -0.4430    2.8140 hc        1 MOL      0.080754
     18 H7          2.5410    0.6120    2.3800 hc        1 MOL      0.080754
     19 N2          1.8560   -3.4510    1.2700 n         1 MOL     -0.226959
     20 C7          2.1050   -4.7770    0.6650 c3        1 MOL      0.251251
     21 C8          3.1240   -4.8990   -0.4780 c         1 MOL      0.430485
     22 O5          3.6470   -6.0210   -0.7570 o         1 MOL     -0.553658
     23 C9          0.7150   -5.3590    0.3650 c3        1 MOL     -0.370658
     24 H8          1.1410   -2.9220    0.7960 hn        1 MOL      0.180788
     25 H9          2.6150   -5.4030    1.4000 h1        1 MOL      0.017173
     26 H10         0.8840   -6.3860    0.0580 hc        1 MOL      0.095663
     27 H11         0.0740   -5.2090    1.2380 hc        1 MOL      0.095663
     28 H12         0.2680   -4.8070   -0.4590 hc        1 MOL      0.095663
     29 N3          3.5720   -3.6700   -0.9570 n         1 MOL     -0.123306
     30 C10         4.8930   -3.4930   -1.5730 c3        1 MOL     -0.020540
     31 C11         6.0370   -3.1750   -0.5760 c         1 MOL      0.302422
     32 O6          7.2390   -3.2530   -0.9300 o         1 MOL     -0.511727
     33 C12         4.7410   -2.3460   -2.5760 c3        1 MOL     -0.138790
     34 C13         3.5210   -2.5230   -3.5020 c         1 MOL      0.691492
     35 O7          2.4170   -2.1330   -3.1240 o         1 MOL     -0.702101
     36 O8          3.6220   -3.2090   -4.5800 o         1 MOL     -0.702101
     37 H13         3.0290   -2.8310   -0.7900 hn        1 MOL      0.091164
     38 H14         5.2240   -4.3610   -2.1510 h1        1 MOL      0.103584
     39 H15         5.6340   -2.2480   -3.2000 hc        1 MOL      0.012752
     40 H16         4.7600   -1.4630   -1.9410 hc        1 MOL      0.012752
     41 N4          5.6720   -2.8670    0.6870 n         1 MOL      0.138396
     42 C14         6.5870   -2.5530    1.7560 c3        1 MOL     -0.151452
     43 C15         7.4660   -1.2920    1.5120 c         1 MOL      0.513646
     44 O9          8.6000   -1.2850    2.1030 o         1 MOL     -0.568187
     45 H17         4.7140   -2.8850    1.0020 hn        1 MOL     -0.097110
     46 H18         7.2040   -3.4560    1.8500 h1        1 MOL      0.081657
     47 H19         5.9660   -2.4200    2.6410 h1        1 MOL      0.081657
     48 N5          7.0300   -0.2610    0.8190 n         1 MOL     -0.545130
     49 C16         7.8700    0.6810    0.2010 c3        1 MOL      0.237186
     50 C17         7.6380    2.0590    0.7770 c         1 MOL      0.414584
     51 O10         8.5320    2.9490    0.6220 o         1 MOL     -0.517560
     52 C18         7.7050    0.5680   -1.3390 c3        1 MOL     -0.116025
     53 C19         8.6970    1.4280   -2.0660 c         1 MOL      0.561078
     54 N6          8.2260    2.0550   -3.0650 n         1 MOL     -0.699998
     55 O11         9.8420    1.6220   -1.7250 o         1 MOL     -0.565381
     56 H20         6.0640   -0.1730    0.5400 hn        1 MOL      0.422777
     57 H21         8.9280    0.5280    0.4180 h1        1 MOL      0.052970
     58 H22         6.6650    0.7630   -1.5900 hc        1 MOL      0.051124
     59 H23         7.8840   -0.4620   -1.6610 hc        1 MOL      0.051124
     60 H24         7.2680    1.9300   -3.3730 hn        1 MOL      0.333189
     61 H25         8.8890    2.6560   -3.5380 hn        1 MOL      0.333189
     62 N7          6.4500    2.3220    1.3950 n         1 MOL     -0.315450
     63 C20         6.0930    3.5960    2.0660 c3        1 MOL      0.077817
     64 C21         4.7360    4.1850    1.5870 c         1 MOL      0.403545
     65 O12         4.4420    5.3350    1.9330 o         1 MOL     -0.553243
     66 H26         5.6730    1.6990    1.2270 hn        1 MOL      0.105565
     67 H27         6.8730    4.3360    1.8640 h1        1 MOL      0.057423
     68 H28         6.1270    3.4270    3.1410 h1        1 MOL      0.057423
     69 N8          3.8280    3.4890    0.8070 n         1 MOL     -0.187340
     70 C22         2.5820    4.0600    0.3260 c3        1 MOL     -0.163935
     71 C23         1.3810    3.0500    0.3880 c         1 MOL      0.323790
     72 O13         1.4930    1.9170   -0.0810 o         1 MOL     -0.336121
     73 C24         2.8280    4.7150   -1.0230 c3        1 MOL      0.370924
     74 C25         3.5750    6.0680   -0.9700 c3        1 MOL     -0.513902
     75 O14         3.3890    3.7930   -1.9370 oh        1 MOL     -0.614024
     76 H29         3.9450    2.5210    0.5340 hn        1 MOL      0.196858
     77 H30         2.3030    4.8620    1.0040 h1        1 MOL      0.128529
     78 H31         1.8370    4.8980   -1.4310 h1        1 MOL     -0.023169
     79 H32         3.1590    4.1590   -2.8040 ho        1 MOL      0.407982
     80 H33         4.4990    5.8010   -0.4580 hc        1 MOL      0.144379
     81 H34         3.8260    6.3840   -1.9820 hc        1 MOL      0.144379
     82 H35         3.0660    6.8580   -0.4080 hc        1 MOL      0.144379
     83 N9          0.1930    3.5420    0.8250 n         1 MOL     -0.295060
     84 C26        -0.9830    2.7030    1.0750 c3        1 MOL     -0.012983
     85 C27        -1.9890    2.9120   -0.0530 c         1 MOL      0.463592
     86 O15        -2.3370    4.0920   -0.2730 o         1 MOL     -0.561549
     87 C28        -1.5440    2.9390    2.5330 c3        1 MOL      0.347287
     88 C29        -0.4090    3.0080    3.5840 c3        1 MOL      0.171998
     89 C30        -2.5190    1.8560    2.9040 c3        1 MOL     -0.458393
     90 C31        -0.8920    3.5140    4.9160 c3        1 MOL     -0.266058
     91 H36         0.2180    4.4730    1.2120 hn        1 MOL      0.215764
     92 H37        -0.6320    1.6720    0.9900 h1        1 MOL      0.063369
     93 H38        -1.9730    3.9380    2.6490 hc        1 MOL     -0.068249
     94 H39         0.3820    3.7060    3.3350 hc        1 MOL     -0.042034
     95 H40         0.1390    2.0660    3.6810 hc        1 MOL     -0.042034
     96 H41        -2.0600    0.8750    2.8200 hc        1 MOL      0.084438
     97 H42        -2.8910    2.0470    3.9060 hc        1 MOL      0.084438
     98 H43        -3.2780    1.9370    2.1210 hc        1 MOL      0.084438
     99 H44        -1.8350    3.1260    5.2990 hc        1 MOL      0.054511
    100 H45        -0.1670    3.5200    5.7260 hc        1 MOL      0.054511
    101 H46        -1.0550    4.5770    4.7510 hc        1 MOL      0.054511
    102 N10        -2.4880    1.7830   -0.7090 n         1 MOL     -0.315728
    103 C32        -3.6720    1.7280   -1.6250 c3        1 MOL      0.064082
    104 C33        -4.9650    1.3690   -0.8490 c         1 MOL      0.411724
    105 O16        -4.8930    0.7330    0.1800 o         1 MOL     -0.244966
    106 C34        -3.3980    0.6920   -2.7450 c3        1 MOL     -0.363635
    107 C35        -1.8810    0.7090   -3.3070 c         1 MOL      0.815904
    108 O17        -1.1020   -0.2310   -3.1580 o         1 MOL     -0.726092
    109 O18        -1.5540    1.6870   -4.0620 o         1 MOL     -0.726092
    110 H47        -2.0120    0.8970   -0.6360 hn        1 MOL      0.234555
    111 H48        -3.8720    2.6190   -2.2200 h1        1 MOL      0.059333
    112 H49        -3.9860    0.9990   -3.6110 hc        1 MOL      0.095830
    113 H50        -3.6860   -0.3150   -2.4650 hc        1 MOL      0.095830
    114 N11        -6.1310    1.6740   -1.4250 n         1 MOL     -0.631061
    115 C36        -7.4410    1.2470   -0.8130 c3        1 MOL      0.284324
    116 C37        -7.6780   -0.2950   -0.4580 c         1 MOL      0.333784
    117 O19        -8.1820   -0.5600    0.5900 o         1 MOL     -0.463633
    118 C38        -8.6210    1.8510   -1.6330 c3        1 MOL     -0.087477
    119 C39       -10.0210    1.6690   -0.9950 ca        1 MOL     -0.018554
    120 C40       -10.3420    2.3590    0.1840 ca        1 MOL     -0.104810
    121 C41       -10.8530    0.6270   -1.4210 ca        1 MOL     -0.104810
    122 C42       -11.6360    2.2610    0.7620 ca        1 MOL     -0.116356
    123 C43       -12.1260    0.4970   -0.9070 ca        1 MOL     -0.116356
    124 C44       -12.5440    1.3560    0.1290 ca        1 MOL     -0.112751
    125 H51        -6.0070    2.1970   -2.2820 hn        1 MOL      0.337142
    126 H52        -7.6070    1.7800    0.1240 h1        1 MOL      0.058566
    127 H53        -8.6570    1.3510   -2.6030 hc        1 MOL      0.036003
    128 H54        -8.5250    2.9290   -1.7060 hc        1 MOL      0.036003
    129 H55        -9.6500    3.1190    0.5110 ha        1 MOL      0.101300
    130 H56       -10.4500   -0.0600   -2.1520 ha        1 MOL      0.101300
    131 H57       -12.0330    2.8130    1.6120 ha        1 MOL      0.113031
    132 H58       -12.7790   -0.2620   -1.2930 ha        1 MOL      0.113031
    133 H59       -13.5680    1.2330    0.4440 ha        1 MOL      0.097674
    134 N12        -7.1530   -1.2750   -1.2320 n         1 MOL     -0.069915
    135 C45        -7.0860   -2.6400   -0.7630 c3        1 MOL      0.061210
    136 C46        -6.0610   -2.8240    0.4020 c         1 MOL      0.328050
    137 O20        -6.3350   -3.5990    1.3510 o         1 MOL     -0.517517
    138 C47        -6.7220   -3.4400   -2.0500 c3        1 MOL     -0.125966
    139 C48        -6.0990   -2.3700   -2.9690 c3        1 MOL     -0.041826
    140 C49        -6.9260   -1.1620   -2.6790 c3        1 MOL     -0.020607
    141 H60        -8.0290   -3.0410   -0.3990 h1        1 MOL      0.050412
    142 H61        -5.9310   -4.1710   -1.8650 hc        1 MOL      0.057698
    143 H62        -7.5960   -3.9140   -2.4880 hc        1 MOL      0.057698
    144 H63        -5.0680   -2.1120   -2.7500 hc        1 MOL      0.034416
    145 H64        -6.2460   -2.6050   -4.0280 hc        1 MOL      0.034416
    146 H65        -6.3520   -0.3110   -3.0310 h1        1 MOL      0.027083
    147 H66        -7.8550   -1.3100   -3.2290 h1        1 MOL      0.027083
    148 N13        -4.9760   -2.1700    0.3720 n         1 MOL     -0.088938
    149 C50        -4.1330   -2.0580    1.5710 c3        1 MOL     -0.310410
    150 C51        -4.8720   -1.4100    2.8180 c         1 MOL      0.526601
    151 O21        -4.8240   -1.9270    3.9610 o         1 MOL     -0.553532
    152 C52        -2.7860   -1.5040    1.2480 c3        1 MOL      0.049913
    153 C53        -2.1470   -2.1500   -0.0300 c3        1 MOL     -0.051494
    154 C54        -0.8050   -1.4880   -0.3840 c         1 MOL      0.656818
    155 O22        -0.6340   -0.2480   -0.3910 o         1 MOL     -0.699070
    156 O23         0.0900   -2.1710   -0.8860 o         1 MOL     -0.699070
    157 H67        -4.7450   -1.5710   -0.4100 hn        1 MOL      0.178927
    158 H68        -3.8900   -3.0790    1.8500 h1        1 MOL      0.146383
    159 H69        -2.1800   -1.5120    2.1560 hc        1 MOL      0.039598
    160 H70        -2.9390   -0.4540    1.0050 hc        1 MOL      0.039598
    161 H71        -2.7950   -2.0960   -0.9000 hc        1 MOL      0.022308
    162 H72        -2.0140   -3.2160    0.1580 hc        1 MOL      0.022308
    163 N14        -5.5200   -0.2360    2.6710 n         1 MOL     -0.028935
    164 C55        -6.2970    0.3510    3.7590 c3        1 MOL     -0.319390
    165 H73        -7.2650   -0.1470    3.8240 h1        1 MOL      0.106630
    166 H74        -5.7610    0.2250    4.6990 h1        1 MOL      0.106630
    167 H75        -6.4490    1.4130    3.5660 h1        1 MOL      0.106630
    168 H76        -5.5030    0.2040    1.7710 hn        1 MOL      0.043221
    169 Ca1         1.2550   -0.1570   -2.1610 Ca        1 MOL      1.727065
    170 O24         1.5790   -0.1560   -4.8680 oh        1 MOL     -0.867075
    171 H77         0.7450    0.1300   -5.2460 ho        1 MOL      0.407546
    172 H78         1.8460   -0.8990   -5.4090 ho        1 MOL      0.407546
    173 O25         3.6370    1.1230   -2.0360 oh        1 MOL     -0.867075
    174 H79         3.8940    0.8340   -1.1610 ho        1 MOL      0.407546
    175 H80         3.5890    2.0770   -1.9790 ho        1 MOL      0.407546
    176 O26         0.6700    2.3730   -2.9350 oh        1 MOL     -0.867075
    177 H81         0.9870    3.1060   -3.4610 ho        1 MOL      0.407546
    178 H82        -0.2270    2.2270   -3.2440 ho        1 MOL      0.407546
@<TRIPOS>BOND
     1    1    2 1   
     2    1    4 1   
     3    1    5 1   
     4    1    6 1   
     5    2    3 2   
     6    2    7 1   
     7    7    8 1   
     8    7   15 1   
     9    8    9 1   
    10    8   11 1   
    11    8   16 1   
    12    9   10 2   
    13    9   19 1   
    14   11   12 1   
    15   11   17 1   
    16   11   18 1   
    17   12   13 1   
    18   12   14 1   
    19   19   20 1   
    20   19   24 1   
    21   20   21 1   
    22   20   23 1   
    23   20   25 1   
    24   21   22 2   
    25   21   29 1   
    26   23   26 1   
    27   23   27 1   
    28   23   28 1   
    29   29   30 1   
    30   29   37 1   
    31   30   31 1   
    32   30   33 1   
    33   30   38 1   
    34   31   32 2   
    35   31   41 1   
    36   33   34 1   
    37   33   39 1   
    38   33   40 1   
    39   34   35 1   
    40   34   36 1   
    41   41   42 1   
    42   41   45 1   
    43   42   43 1   
    44   42   46 1   
    45   42   47 1   
    46   43   44 2   
    47   43   48 1   
    48   48   49 1   
    49   48   56 1   
    50   49   50 1   
    51   49   52 1   
    52   49   57 1   
    53   50   51 2   
    54   50   62 1   
    55   52   53 1   
    56   52   58 1   
    57   52   59 1   
    58   53   54 1   
    59   53   55 2   
    60   54   60 1   
    61   54   61 1   
    62   62   63 1   
    63   62   66 1   
    64   63   64 1   
    65   63   67 1   
    66   63   68 1   
    67   64   65 2   
    68   64   69 1   
    69   69   70 1   
    70   69   76 1   
    71   70   71 1   
    72   70   73 1   
    73   70   77 1   
    74   71   72 2   
    75   71   83 1   
    76   73   74 1   
    77   73   75 1   
    78   73   78 1   
    79   74   80 1   
    80   74   81 1   
    81   74   82 1   
    82   75   79 1   
    83   83   84 1   
    84   83   91 1   
    85   84   85 1   
    86   84   87 1   
    87   84   92 1   
    88   85   86 2   
    89   85  102 1   
    90   87   88 1   
    91   87   89 1   
    92   87   93 1   
    93   88   90 1   
    94   88   94 1   
    95   88   95 1   
    96   89   96 1   
    97   89   97 1   
    98   89   98 1   
    99   90   99 1   
   100   90  100 1   
   101   90  101 1   
   102  102  103 1   
   103  102  110 1   
   104  103  104 1   
   105  103  106 1   
   106  103  111 1   
   107  104  105 2   
   108  104  114 1   
   109  106  107 1   
   110  106  112 1   
   111  106  113 1   
   112  107  108 1   
   113  107  109 1   
   114  114  115 1   
   115  114  125 1   
   116  115  116 1   
   117  115  118 1   
   118  115  126 1   
   119  116  117 2   
   120  116  134 1   
   121  118  119 1   
   122  118  127 1   
   123  118  128 1   
   124  119  120 ar  
   125  119  121 ar  
   126  120  122 ar  
   127  120  129 1   
   128  121  123 ar  
   129  121  130 1   
   130  122  124 ar  
   131  122  131 1   
   132  123  124 ar  
   133  123  132 1   
   134  124  133 1   
   135  134  135 1   
   136  134  140 1   
   137  135  136 1   
   138  135  138 1   
   139  135  141 1   
   140  136  137 2   
   141  136  148 1   
   142  138  139 1   
   143  138  142 1   
   144  138  143 1   
   145  139  140 1   
   146  139  144 1   
   147  139  145 1   
   148  140  146 1   
   149  140  147 1   
   150  148  149 1   
   151  148  157 1   
   152  149  150 1   
   153  149  152 1   
   154  149  158 1   
   155  150  151 2   
   156  150  163 1   
   157  152  153 1   
   158  152  159 1   
   159  152  160 1   
   160  153  154 1   
   161  153  161 1   
   162  153  162 1   
   163  154  155 1   
   164  154  156 1   
   165  163  164 1   
   166  163  168 1   
   167  164  165 1   
   168  164  166 1   
   169  164  167 1   
   170  170  171 1   
   171  170  172 1   
   172  173  174 1   
   173  173  175 1   
   174  176  177 1   
   175  176  178 1   
@<TRIPOS>SUBSTRUCTURE
     1 MOL         1 TEMP              0 ****  ****    0 ROOT
