@<TRIPOS>MOLECULE
MOL
  176   174     1     0     0
SMALL
resp


@<TRIPOS>ATOM
      1 C1          1.2260    3.9820    6.1730 c3        1 MOL     -0.198452
      2 C2          0.9930    3.4350    4.7670 c         1 MOL      0.638241
      3 O1          2.0400    3.3140    4.0870 o         1 MOL     -0.549449
      4 H1          0.2760    4.3050    6.5990 hc        1 MOL      0.048928
      5 H2          1.6570    3.2020    6.7990 hc        1 MOL      0.048928
      6 H3          1.9090    4.8290    6.1250 hc        1 MOL      0.048928
      7 N1         -0.2270    3.2570    4.2760 n         1 MOL     -0.486601
      8 C3         -0.4040    2.9910    2.8470 c3        1 MOL     -0.007729
      9 C4          0.0980    4.1330    2.0030 c         1 MOL      0.680927
     10 O2          0.1300    5.2470    2.4740 o         1 MOL     -0.551562
     11 C5         -1.9430    2.8800    2.6760 c3        1 MOL     -0.334394
     12 C6         -2.1970    1.8700    1.5430 c         1 MOL      0.874864
     13 O3         -2.2830    2.3620    0.3560 o         1 MOL     -0.751209
     14 O4         -2.2630    0.6270    1.6680 o         1 MOL     -0.751209
     15 H4         -1.0370    3.3630    4.8760 hn        1 MOL      0.326991
     16 H5          0.0600    2.0290    2.6320 h1        1 MOL     -0.006799
     17 H6         -2.3490    3.8730    2.4950 hc        1 MOL      0.092280
     18 H7         -2.3660    2.5090    3.6120 hc        1 MOL      0.092280
     19 N2          0.3850    3.8310    0.7500 n         1 MOL     -0.516886
     20 C7          0.8540    4.8330   -0.2710 c3        1 MOL     -0.066334
     21 C8         -0.2490    5.2910   -1.1360 c         1 MOL      0.587939
     22 O5         -0.1990    6.3960   -1.6900 o         1 MOL     -0.595093
     23 C9          2.0860    4.3610   -1.0330 c3        1 MOL      0.349755
     24 C10         2.8940    5.3960   -1.8370 c3        1 MOL     -0.199860
     25 C11         4.2350    4.9600   -2.4130 c3        1 MOL      0.125735
     26 C12         5.0140    6.2650   -2.8910 c3        1 MOL      0.061671
     27 N3          6.1430    5.9030   -3.6650 n4        1 MOL     -0.289208
     28 H8          0.2690    2.8660    0.4840 hn        1 MOL      0.245899
     29 H9          1.2200    5.7720    0.1530 h1        1 MOL      0.080670
     30 H10         1.7830    3.5590   -1.7060 hc        1 MOL     -0.018416
     31 H11         2.8110    4.0100   -0.3040 hc        1 MOL     -0.018416
     32 H12         3.1660    6.2190   -1.1700 hc        1 MOL      0.025815
     33 H13         2.2780    5.8130   -2.6260 hc        1 MOL      0.025815
     34 H14         3.9960    4.3490   -3.2800 hc        1 MOL     -0.018250
     35 H15         4.8180    4.3790   -1.6980 hc        1 MOL     -0.018250
     36 H16         5.4000    6.7940   -2.0140 hx        1 MOL      0.078104
     37 H17         4.3870    6.9600   -3.4520 hx        1 MOL      0.078104
     38 H18         6.7880    6.6770   -3.7870 hn        1 MOL      0.305626
     39 H19         6.5450    5.0430   -3.3260 hn        1 MOL      0.305626
     40 H20         5.9310    5.6700   -4.6260 hn        1 MOL      0.305626
     41 N4         -1.2440    4.4310   -1.3450 n         1 MOL     -0.371863
     42 C13        -2.2360    4.5380   -2.3730 c3        1 MOL      0.091289
     43 C14        -3.7510    4.4650   -1.9810 c         1 MOL      0.447753
     44 O6         -4.5340    4.9600   -2.7330 o         1 MOL     -0.541743
     45 C15        -2.1130    3.4590   -3.4940 c3        1 MOL     -0.280107
     46 C16        -1.9490    2.0630   -2.9380 c         1 MOL      0.844450
     47 O7         -2.9010    1.4870   -2.3790 o         1 MOL     -0.789136
     48 O8         -0.8430    1.5000   -2.8810 o         1 MOL     -0.789136
     49 H21        -1.2060    3.5370   -0.8710 hn        1 MOL      0.244817
     50 H22        -2.2310    5.5190   -2.8490 h1        1 MOL      0.094188
     51 H23        -1.1850    3.6550   -4.0170 hc        1 MOL      0.062329
     52 H24        -2.9730    3.4620   -4.1630 hc        1 MOL      0.062329
     53 N5         -4.0910    4.0250   -0.7830 n         1 MOL     -0.225891
     54 C17        -5.4410    4.0590   -0.1440 c3        1 MOL     -0.127598
     55 C18        -6.2780    2.8690   -0.4810 c         1 MOL      0.503901
     56 O9         -7.4840    2.9750   -0.1990 o         1 MOL     -0.565844
     57 H25        -3.3190    3.6410   -0.2570 hn        1 MOL      0.148777
     58 H26        -6.0540    4.9020   -0.4540 h1        1 MOL      0.098215
     59 H27        -5.3080    4.0160    0.9380 h1        1 MOL      0.098215
     60 N6         -5.7650    1.7160   -0.9540 n         1 MOL     -0.164848
     61 C19        -6.6100    0.5690   -1.1640 c3        1 MOL     -0.052307
     62 C20        -6.9490   -0.1560    0.1430 c         1 MOL      0.451600
     63 O10        -7.9200   -0.9360    0.2080 o         1 MOL     -0.541395
     64 C21        -5.9480   -0.3170   -2.2340 c3        1 MOL     -0.310995
     65 C22        -4.8710   -1.1940   -1.5720 c         1 MOL      0.626495
     66 N7         -4.7710   -2.4280   -1.9740 n         1 MOL     -0.609654
     67 O11        -4.1090   -0.7640   -0.7540 o         1 MOL     -0.534246
     68 H28        -4.8000    1.6200   -1.2190 hn        1 MOL      0.190648
     69 H29        -7.5530    0.9730   -1.5260 h1        1 MOL      0.115462
     70 H30        -5.5150    0.3920   -2.9350 hc        1 MOL      0.119586
     71 H31        -6.7170   -0.9450   -2.7010 hc        1 MOL      0.119586
     72 H32        -5.3760   -2.8280   -2.6670 hn        1 MOL      0.307184
     73 H33        -4.0290   -2.9280   -1.5000 hn        1 MOL      0.307184
     74 N8         -6.1580    0.0830    1.1710 n         1 MOL     -0.194132
     75 C23        -6.3060   -0.7180    2.4240 c3        1 MOL     -0.353309
     76 C24        -5.3740   -1.9510    2.6010 c         1 MOL      0.661400
     77 O12        -5.4700   -2.5330    3.6250 o         1 MOL     -0.564088
     78 H34        -5.3790    0.7010    1.0130 hn        1 MOL      0.204037
     79 H35        -7.3540   -0.9570    2.6210 h1        1 MOL      0.157995
     80 H36        -5.8700   -0.1280    3.2340 h1        1 MOL      0.157995
     81 N9         -4.4690   -2.2730    1.6620 n         1 MOL     -0.354863
     82 C25        -3.4050   -3.2230    1.8720 c3        1 MOL     -0.016524
     83 C26        -2.0560   -2.6710    1.5360 c         1 MOL      0.711569
     84 O13        -1.8170   -2.2500    0.4300 o         1 MOL     -0.656587
     85 C27        -3.6470   -4.6600    1.3890 c3        1 MOL     -0.035550
     86 C28        -3.7800   -4.8410   -0.1290 ca        1 MOL      0.077576
     87 C29        -2.5900   -4.7790   -0.9270 ca        1 MOL     -0.214405
     88 C30        -5.0030   -5.3060   -0.7160 ca        1 MOL     -0.214405
     89 C31        -2.5590   -5.2700   -2.2780 ca        1 MOL     -0.209695
     90 C32        -5.0190   -5.6770   -2.1070 ca        1 MOL     -0.209695
     91 C33        -3.8070   -5.6890   -2.8570 ca        1 MOL      0.307377
     92 O14        -3.8030   -6.0380   -4.1630 oh        1 MOL     -0.517913
     93 H37        -4.4870   -1.9490    0.7070 hn        1 MOL      0.192331
     94 H38        -3.3630   -3.3660    2.9550 h1        1 MOL      0.049651
     95 H39        -4.5800   -5.0460    1.7820 hc        1 MOL      0.047759
     96 H40        -2.8970   -5.2630    1.8940 hc        1 MOL      0.047759
     97 H41        -1.6390   -4.4490   -0.5340 ha        1 MOL      0.163470
     98 H42        -5.9280   -5.2430   -0.1670 ha        1 MOL      0.163470
     99 H43        -1.6260   -5.3870   -2.8050 ha        1 MOL      0.122568
    100 H44        -5.8860   -6.0640   -2.6150 ha        1 MOL      0.122568
    101 H45        -4.6540   -6.3010   -4.5160 ho        1 MOL      0.396445
    102 N10        -1.1010   -2.8020    2.4140 n         1 MOL     -0.505334
    103 C34         0.2970   -2.6420    2.1830 c3        1 MOL     -0.042401
    104 C35         0.9140   -3.6560    1.1750 c         1 MOL      0.445409
    105 O15         0.7040   -4.8260    1.3090 o         1 MOL     -0.532120
    106 C36         0.9800   -2.6630    3.5390 c3        1 MOL      0.344172
    107 C37         0.4420   -1.7040    4.6490 c3        1 MOL     -0.236923
    108 C38         2.4700   -2.3380    3.3720 c3        1 MOL     -0.409589
    109 C39         0.3470   -0.1940    4.2000 c3        1 MOL      0.246945
    110 H46        -1.3560   -3.2570    3.2790 hn        1 MOL      0.298051
    111 H47         0.3030   -1.6360    1.7620 h1        1 MOL      0.006671
    112 H48         0.9390   -3.6500    3.9970 hc        1 MOL     -0.025344
    113 H49         1.1010   -1.7950    5.5120 hc        1 MOL      0.043238
    114 H50        -0.5570   -2.0570    4.8800 hc        1 MOL      0.043238
    115 H51         2.7060   -1.4100    2.8640 hc        1 MOL      0.080269
    116 H52         2.8210   -2.3430    4.4050 hc        1 MOL      0.080269
    117 H53         2.8680   -3.1450    2.7690 hc        1 MOL      0.080269
    118 H54         1.3320    0.2060    3.9250 hc        1 MOL     -0.048722
    119 H55        -0.4330   -0.1120    3.4330 hc        1 MOL     -0.048722
    120 H56         0.0610    0.4140    5.0480 hc        1 MOL     -0.048722
    121 N11         1.7810   -3.1720    0.2520 n         1 MOL      0.038915
    122 C40         2.6910   -3.9430   -0.5800 c3        1 MOL     -0.058390
    123 C41         4.1470   -3.5700   -0.3230 c         1 MOL      0.471164
    124 O16         4.3920   -2.5020    0.2600 o         1 MOL     -0.450353
    125 C42         2.2440   -3.7390   -2.0390 c3        1 MOL     -0.029261
    126 O17         0.8950   -4.1740   -2.1920 oh        1 MOL     -0.577398
    127 H57         1.6490   -2.1850    0.0970 hn        1 MOL      0.065730
    128 H58         2.5840   -4.9680   -0.2250 h1        1 MOL      0.066058
    129 H59         2.8870   -4.2430   -2.7530 h1        1 MOL      0.080244
    130 H60         2.3600   -2.7010   -2.3780 h1        1 MOL      0.080244
    131 H61         0.9100   -5.1100   -2.3860 ho        1 MOL      0.430868
    132 N12         5.1150   -4.4110   -0.6990 n         1 MOL     -0.484699
    133 C43         6.5150   -4.3900   -0.3600 c3        1 MOL      0.258970
    134 C44         7.2490   -3.1070   -0.7300 c         1 MOL      0.405285
    135 O18         8.0880   -2.6970    0.0660 o         1 MOL     -0.496230
    136 C45         7.1760   -5.5690   -0.9980 c3        1 MOL     -0.402823
    137 H62         4.7850   -5.2800   -1.0860 hn        1 MOL      0.291799
    138 H63         6.6430   -4.5490    0.7060 h1        1 MOL      0.052402
    139 H64         7.0740   -5.4260   -2.0720 hc        1 MOL      0.114988
    140 H65         8.2070   -5.5520   -0.6400 hc        1 MOL      0.114988
    141 H66         6.6260   -6.4690   -0.7380 hc        1 MOL      0.114988
    142 N13         6.8500   -2.4570   -1.8360 n         1 MOL     -0.300631
    143 C46         7.2990   -1.1720   -2.1970 c3        1 MOL      0.088899
    144 C47         6.9250    0.0140   -1.2420 c         1 MOL      0.330916
    145 O19         7.5980    1.0080   -1.0660 o         1 MOL     -0.520878
    146 C48         6.8810   -0.8450   -3.6410 c3        1 MOL     -0.264402
    147 H67         6.0800   -2.8430   -2.3690 hn        1 MOL      0.214267
    148 H68         8.3880   -1.1660   -2.2630 h1        1 MOL      0.083998
    149 H69         7.2000   -1.5990   -4.3630 hc        1 MOL      0.077445
    150 H70         5.8030   -0.6950   -3.6770 hc        1 MOL      0.077445
    151 H71         7.2500    0.1390   -3.9350 hc        1 MOL      0.077445
    152 N14         5.7830   -0.1150   -0.5940 n         1 MOL     -0.159055
    153 C49         5.1450    0.8670    0.3900 c3        1 MOL     -0.112325
    154 C50         5.7740    0.7670    1.8100 c         1 MOL      0.484654
    155 O20         5.9200    1.8100    2.4510 o         1 MOL     -0.544365
    156 C51         3.6070    0.6920    0.5170 c3        1 MOL      0.082221
    157 C52         2.8280    0.8130   -0.8020 c3        1 MOL     -0.004170
    158 C53         1.4330    0.3330   -0.5690 c         1 MOL      0.790114
    159 O21         0.6150    1.0180    0.0650 o         1 MOL     -0.705764
    160 O22         1.1000   -0.6500   -1.2410 o         1 MOL     -0.705764
    161 H72         5.2920   -0.9710   -0.7910 hn        1 MOL      0.194335
    162 H73         5.4460    1.8800    0.1170 h1        1 MOL      0.099730
    163 H74         3.2510    1.5020    1.1510 hc        1 MOL      0.022456
    164 H75         3.3900   -0.2710    0.9680 hc        1 MOL      0.022456
    165 H76         3.2540    0.1320   -1.5320 hc        1 MOL     -0.062138
    166 H77         2.8920    1.8570   -1.1100 hc        1 MOL     -0.062138
    167 N15         6.1170   -0.4060    2.2830 n         1 MOL     -0.109764
    168 C54         6.9160   -0.4340    3.4700 c3        1 MOL     -0.284647
    169 H78         7.0300    0.5800    3.8560 h1        1 MOL      0.113524
    170 H79         6.4290   -1.0550    4.2220 h1        1 MOL      0.113524
    171 H80         7.8980   -0.8470    3.2380 h1        1 MOL      0.113524
    172 H81         5.8840   -1.2490    1.7680 hn        1 MOL      0.163953
    173 Ca1        -1.5160    0.0160   -0.7310 Ca        1 MOL      1.727160
    174 O23        -1.1390   -1.9330   -2.4910 oh        1 MOL     -0.877844
    175 H82        -0.2520   -2.2000   -2.2730 ho        1 MOL      0.427499
    176 H83        -1.3700   -2.4700   -3.2540 ho        1 MOL      0.427499
@<TRIPOS>BOND
     1    1    2 1   
     2    1    4 1   
     3    1    5 1   
     4    1    6 1   
     5    2    3 2   
     6    2    7 1   
     7    7    8 1   
     8    7   15 1   
     9    8    9 1   
    10    8   11 1   
    11    8   16 1   
    12    9   10 2   
    13    9   19 1   
    14   11   12 1   
    15   11   17 1   
    16   11   18 1   
    17   12   13 1   
    18   12   14 1   
    19   19   20 1   
    20   19   28 1   
    21   20   21 1   
    22   20   23 1   
    23   20   29 1   
    24   21   22 2   
    25   21   41 1   
    26   23   24 1   
    27   23   30 1   
    28   23   31 1   
    29   24   25 1   
    30   24   32 1   
    31   24   33 1   
    32   25   26 1   
    33   25   34 1   
    34   25   35 1   
    35   26   27 1   
    36   26   36 1   
    37   26   37 1   
    38   27   38 1   
    39   27   39 1   
    40   27   40 1   
    41   41   42 1   
    42   41   49 1   
    43   42   43 1   
    44   42   45 1   
    45   42   50 1   
    46   43   44 2   
    47   43   53 1   
    48   45   46 1   
    49   45   51 1   
    50   45   52 1   
    51   46   47 1   
    52   46   48 1   
    53   53   54 1   
    54   53   57 1   
    55   54   55 1   
    56   54   58 1   
    57   54   59 1   
    58   55   56 2   
    59   55   60 1   
    60   60   61 1   
    61   60   68 1   
    62   61   62 1   
    63   61   64 1   
    64   61   69 1   
    65   62   63 2   
    66   62   74 1   
    67   64   65 1   
    68   64   70 1   
    69   64   71 1   
    70   65   66 1   
    71   65   67 2   
    72   66   72 1   
    73   66   73 1   
    74   74   75 1   
    75   74   78 1   
    76   75   76 1   
    77   75   79 1   
    78   75   80 1   
    79   76   77 2   
    80   76   81 1   
    81   81   82 1   
    82   81   93 1   
    83   82   83 1   
    84   82   85 1   
    85   82   94 1   
    86   83   84 2   
    87   83  102 1   
    88   85   86 1   
    89   85   95 1   
    90   85   96 1   
    91   86   87 ar  
    92   86   88 ar  
    93   87   89 ar  
    94   87   97 1   
    95   88   90 ar  
    96   88   98 1   
    97   89   91 ar  
    98   89   99 1   
    99   90   91 ar  
   100   90  100 1   
   101   91   92 1   
   102   92  101 1   
   103  102  103 1   
   104  102  110 1   
   105  103  104 1   
   106  103  106 1   
   107  103  111 1   
   108  104  105 2   
   109  104  121 1   
   110  106  107 1   
   111  106  108 1   
   112  106  112 1   
   113  107  109 1   
   114  107  113 1   
   115  107  114 1   
   116  108  115 1   
   117  108  116 1   
   118  108  117 1   
   119  109  118 1   
   120  109  119 1   
   121  109  120 1   
   122  121  122 1   
   123  121  127 1   
   124  122  123 1   
   125  122  125 1   
   126  122  128 1   
   127  123  124 2   
   128  123  132 1   
   129  125  126 1   
   130  125  129 1   
   131  125  130 1   
   132  126  131 1   
   133  132  133 1   
   134  132  137 1   
   135  133  134 1   
   136  133  136 1   
   137  133  138 1   
   138  134  135 2   
   139  134  142 1   
   140  136  139 1   
   141  136  140 1   
   142  136  141 1   
   143  142  143 1   
   144  142  147 1   
   145  143  144 1   
   146  143  146 1   
   147  143  148 1   
   148  144  145 2   
   149  144  152 1   
   150  146  149 1   
   151  146  150 1   
   152  146  151 1   
   153  152  153 1   
   154  152  161 1   
   155  153  154 1   
   156  153  156 1   
   157  153  162 1   
   158  154  155 2   
   159  154  167 1   
   160  156  157 1   
   161  156  163 1   
   162  156  164 1   
   163  157  158 1   
   164  157  165 1   
   165  157  166 1   
   166  158  159 1   
   167  158  160 1   
   168  167  168 1   
   169  167  172 1   
   170  168  169 1   
   171  168  170 1   
   172  168  171 1   
   173  174  175 1   
   174  174  176 1   
@<TRIPOS>SUBSTRUCTURE
     1 MOL         1 TEMP              0 ****  ****    0 ROOT
