@<TRIPOS>MOLECULE
MOL
  172   171     1     0     0
SMALL
resp


@<TRIPOS>ATOM
      1 C1          0.5990    4.0820    5.6230 c3        1 MOL     -0.351908
      2 C2         -0.1400    3.9760    4.2210 c         1 MOL      0.725100
      3 O1          0.4930    4.2070    3.1710 o         1 MOL     -0.579888
      4 H1          0.1690    3.3580    6.3160 hc        1 MOL      0.086725
      5 H2          1.6600    3.8720    5.4920 hc        1 MOL      0.086725
      6 H3          0.4740    5.0870    6.0250 hc        1 MOL      0.086725
      7 N1         -1.4140    3.5990    4.1450 n         1 MOL     -0.723079
      8 C3         -2.1340    3.2850    2.8680 c3        1 MOL      0.414018
      9 C4         -2.2880    4.5050    1.9240 c         1 MOL      0.668572
     10 O2         -2.5690    5.5780    2.4330 o         1 MOL     -0.604585
     11 C5         -3.4980    2.7310    3.1950 c3        1 MOL     -0.437996
     12 C6         -4.3900    2.3030    1.9250 c         1 MOL      0.655539
     13 O3         -5.6390    2.4700    1.9100 o         1 MOL     -0.631807
     14 O4         -3.7700    1.7790    0.9570 o         1 MOL     -0.631807
     15 H4         -1.8670    3.3000    4.9910 hn        1 MOL      0.331246
     16 H5         -1.6280    2.4320    2.4160 h1        1 MOL     -0.007423
     17 H6         -4.1250    3.4910    3.6580 hc        1 MOL      0.077823
     18 H7         -3.3430    1.9150    3.9010 hc        1 MOL      0.077823
     19 N2         -2.2520    4.2980    0.6090 n         1 MOL     -0.742141
     20 C7         -2.2630    5.3130   -0.3710 c3        1 MOL      0.521361
     21 C8         -3.2190    5.0200   -1.5030 c         1 MOL      0.272005
     22 O5         -3.3010    5.8660   -2.4500 o         1 MOL     -0.566784
     23 C9         -0.8090    5.5700   -0.7950 c3        1 MOL     -0.273786
     24 H8         -1.9850    3.4170    0.2080 hn        1 MOL      0.413172
     25 H9         -2.6190    6.2800   -0.0030 h1        1 MOL     -0.015529
     26 H10        -0.8560    6.4330   -1.4650 hc        1 MOL      0.055826
     27 H11        -0.2520    5.8940    0.0810 hc        1 MOL      0.055826
     28 H12        -0.3380    4.7060   -1.2640 hc        1 MOL      0.055826
     29 N3         -3.8840    3.8500   -1.6900 n         1 MOL     -0.144734
     30 C10        -4.8190    3.4600   -2.7530 c3        1 MOL     -0.062839
     31 C11        -6.0630    2.5400   -2.4070 c         1 MOL      0.440114
     32 O6         -6.8190    2.1680   -3.2780 o         1 MOL     -0.536589
     33 C12        -3.8910    2.6970   -3.7320 c3        1 MOL     -0.012366
     34 C13        -3.2820    1.3940   -3.1880 c         1 MOL      0.672135
     35 O7         -2.4180    0.7970   -3.8640 o         1 MOL     -0.685704
     36 O8         -3.6070    0.9090   -2.0870 o         1 MOL     -0.685704
     37 H13        -3.5810    3.1100   -1.0680 hn        1 MOL      0.099743
     38 H14        -5.0850    4.3430   -3.3270 h1        1 MOL      0.109020
     39 H15        -3.0580    3.3070   -4.0600 hc        1 MOL      0.010540
     40 H16        -4.4990    2.4110   -4.5850 hc        1 MOL      0.010540
     41 N4         -6.3870    2.2440   -1.1590 n         1 MOL     -0.278312
     42 C14        -7.5860    1.4490   -0.7570 c3        1 MOL     -0.064725
     43 C15        -7.3730   -0.0710   -1.0690 c         1 MOL      0.518678
     44 O9         -8.2680   -0.8530   -0.7860 o         1 MOL     -0.610609
     45 H17        -5.6870    2.4990   -0.4690 hn        1 MOL      0.155566
     46 H18        -8.5040    1.8340   -1.1770 h1        1 MOL      0.099712
     47 H19        -7.7910    1.4540    0.3040 h1        1 MOL      0.099712
     48 N5         -6.2690   -0.5930   -1.7140 n         1 MOL     -0.414423
     49 C16        -6.1630   -1.9980   -2.2820 c3        1 MOL      0.281440
     50 C17        -6.0910   -3.1550   -1.1850 c         1 MOL      0.361742
     51 O10        -6.0120   -4.3200   -1.4790 o         1 MOL     -0.506947
     52 C18        -4.9520   -2.0800   -3.2660 c3        1 MOL     -0.488248
     53 C19        -3.5620   -2.4100   -2.6020 c         1 MOL      0.750517
     54 N6         -2.6140   -2.8900   -3.3430 n         1 MOL     -0.597480
     55 O11        -3.3390   -2.0890   -1.4160 o         1 MOL     -0.761902
     56 H20        -5.4950    0.0230   -1.9510 hn        1 MOL      0.217096
     57 H21        -7.0940   -2.2550   -2.7870 h1        1 MOL      0.061390
     58 H22        -4.8930   -1.1030   -3.7460 hc        1 MOL      0.128844
     59 H23        -5.2170   -2.9000   -3.9360 hc        1 MOL      0.128844
     60 H24        -2.7620   -3.0830   -4.3260 hn        1 MOL      0.339525
     61 H25        -1.7230   -2.7410   -2.8980 hn        1 MOL      0.339525
     62 N7         -6.1610   -2.8390    0.1150 n         1 MOL     -0.193151
     63 C20        -6.2000   -3.8770    1.1800 c3        1 MOL     -0.189266
     64 C21        -4.8710   -4.4590    1.6420 c         1 MOL      0.430550
     65 O12        -4.9320   -5.4440    2.4000 o         1 MOL     -0.547763
     66 H26        -6.4930   -1.9390    0.4280 hn        1 MOL      0.251247
     67 H27        -6.9430   -4.6540    0.9660 h1        1 MOL      0.098119
     68 H28        -6.6530   -3.2860    1.9790 h1        1 MOL      0.098119
     69 N8         -3.7450   -3.9030    1.1960 n         1 MOL     -0.151354
     70 C22        -2.4510   -4.5030    1.4250 c3        1 MOL     -0.298104
     71 C23        -1.3950   -3.3940    1.4740 c         1 MOL      0.356408
     72 O13        -1.5270   -2.3950    0.7990 o         1 MOL     -0.346766
     73 C24        -1.8700   -5.4210    0.3460 c3        1 MOL      0.670252
     74 C25        -2.6490   -6.6960    0.3500 c3        1 MOL     -0.539785
     75 O14        -1.9960   -4.9080   -0.9220 oh        1 MOL     -0.612161
     76 H29        -3.8720   -3.0500    0.6690 hn        1 MOL      0.391429
     77 H30        -2.3800   -4.9370    2.4130 h1        1 MOL      0.096373
     78 H31        -0.8310   -5.6140    0.6030 h1        1 MOL     -0.069862
     79 H32        -2.3740   -4.0330   -0.8150 ho        1 MOL      0.285911
     80 H33        -3.7220   -6.4710    0.2900 hc        1 MOL      0.122413
     81 H34        -2.4630   -7.3550   -0.4890 hc        1 MOL      0.122413
     82 H35        -2.5440   -7.2390    1.2850 hc        1 MOL      0.122413
     83 N9         -0.2810   -3.6570    2.1900 n         1 MOL     -0.205531
     84 C26         0.8530   -2.7400    2.3820 c3        1 MOL     -0.379398
     85 C27         1.7690   -3.0120    1.1630 c         1 MOL      0.610484
     86 O15         2.3830   -4.0640    0.9890 o         1 MOL     -0.586895
     87 C28         1.6040   -2.8270    3.7090 c3        1 MOL      0.237095
     88 C29         0.7510   -2.4890    4.9520 c3        1 MOL      0.076826
     89 C30         2.9240   -1.9620    3.7150 c3        1 MOL     -0.451955
     90 C31         1.2480   -3.1400    6.2180 c3        1 MOL     -0.224884
     91 H36        -0.2230   -4.5430    2.6670 hn        1 MOL      0.236314
     92 H37         0.5540   -1.6980    2.2680 h1        1 MOL      0.107225
     93 H38         1.8140   -3.8810    3.8720 hc        1 MOL      0.005257
     94 H39        -0.3230   -2.6750    4.9360 hc        1 MOL      0.005374
     95 H40         0.8720   -1.4300    5.1840 hc        1 MOL      0.005374
     96 H41         2.5750   -0.9730    3.4080 hc        1 MOL      0.122298
     97 H42         3.1440   -1.8790    4.7840 hc        1 MOL      0.122298
     98 H43         3.8100   -2.3690    3.2400 hc        1 MOL      0.122298
     99 H44         1.1640   -2.4740    7.0790 hc        1 MOL      0.041402
    100 H45         0.7430   -4.1030    6.2940 hc        1 MOL      0.041402
    101 H46         2.3300   -3.2730    6.1640 hc        1 MOL      0.041402
    102 N10         1.8250   -1.9800    0.3400 n         1 MOL     -0.279187
    103 C32         2.5960   -1.9760   -0.9130 c3        1 MOL     -0.031138
    104 C33         4.0220   -1.4410   -0.7270 c         1 MOL      0.590438
    105 O16         4.2140   -0.7490    0.2220 o         1 MOL     -0.455146
    106 C34         1.9310   -1.2120   -2.0470 c3        1 MOL     -0.128925
    107 C35         0.4570   -1.5620   -2.2420 c         1 MOL      0.663661
    108 O17         0.0820   -2.2050   -3.2290 o         1 MOL     -0.644358
    109 O18        -0.2850   -1.0200   -1.3980 o         1 MOL     -0.644358
    110 H47         1.3200   -1.1320    0.5310 hn        1 MOL      0.228572
    111 H48         2.6720   -2.9840   -1.3070 h1        1 MOL      0.066814
    112 H49         2.4680   -1.3950   -2.9800 hc        1 MOL      0.045106
    113 H50         2.1260   -0.1490   -1.8950 hc        1 MOL      0.045106
    114 N11         4.9660   -1.6800   -1.6100 n         1 MOL     -0.748060
    115 C36         6.3080   -1.3590   -1.3660 c3        1 MOL      0.502270
    116 C37         6.5290    0.1390   -1.1060 c         1 MOL      0.212306
    117 O19         7.0110    0.4920   -0.0730 o         1 MOL     -0.487083
    118 C38         7.2550   -1.9390   -2.4180 c3        1 MOL     -0.295054
    119 C39         8.7520   -1.6810   -2.2290 ca        1 MOL      0.210539
    120 C40         9.5410   -1.1660   -3.2650 ca        1 MOL     -0.225072
    121 C41         9.3930   -2.1270   -1.0440 ca        1 MOL     -0.225072
    122 C42        10.9090   -0.9570   -3.0990 ca        1 MOL     -0.077917
    123 C43        10.8040   -1.9500   -0.8700 ca        1 MOL     -0.077917
    124 C44        11.5240   -1.3240   -1.8890 ca        1 MOL     -0.137056
    125 H51         4.6260   -2.1850   -2.4070 hn        1 MOL      0.349646
    126 H52         6.6260   -1.7840   -0.4200 h1        1 MOL      0.038578
    127 H53         6.9660   -1.6130   -3.4150 hc        1 MOL      0.071965
    128 H54         7.1760   -3.0230   -2.4720 hc        1 MOL      0.071965
    129 H55         9.0950   -1.0170   -4.2340 ha        1 MOL      0.128254
    130 H56         8.8750   -2.6590   -0.2600 ha        1 MOL      0.128254
    131 H57        11.4650   -0.5310   -3.9200 ha        1 MOL      0.105720
    132 H58        11.3720   -2.3620   -0.0410 ha        1 MOL      0.105720
    133 H59        12.5990   -1.3110   -1.7350 ha        1 MOL      0.097129
    134 N12         5.9670    1.0600   -1.9370 n         1 MOL     -0.057146
    135 C45         6.0490    2.5000   -1.6290 c3        1 MOL      0.270534
    136 C46         5.4170    2.9100   -0.3190 c         1 MOL      0.217132
    137 O20         5.8900    3.9210    0.1790 o         1 MOL     -0.516650
    138 C47         5.3490    3.2300   -2.7990 c3        1 MOL     -0.264198
    139 C48         5.1930    2.1920   -3.8580 c3        1 MOL      0.299373
    140 C49         5.2580    0.8020   -3.2040 c3        1 MOL     -0.321069
    141 H60         7.0950    2.8090   -1.5660 h1        1 MOL      0.025915
    142 H61         4.3900    3.6410   -2.4750 hc        1 MOL      0.065912
    143 H62         6.0980    3.9640   -3.1000 hc        1 MOL      0.065912
    144 H63         4.2930    2.3420   -4.4530 hc        1 MOL     -0.045590
    145 H64         6.0370    2.2790   -4.5280 hc        1 MOL     -0.045590
    146 H65         4.2360    0.4550   -3.0440 h1        1 MOL      0.100124
    147 H66         5.9460    0.2670   -3.8550 h1        1 MOL      0.100124
    148 N13         4.5910    2.0450    0.2940 n         1 MOL     -0.028460
    149 C50         4.0910    2.2290    1.6920 c3        1 MOL     -0.113293
    150 C51         4.7590    1.3970    2.7390 c         1 MOL      0.505096
    151 O21         4.7900    1.8460    3.8400 o         1 MOL     -0.603102
    152 C52         2.5510    1.9600    1.8080 c3        1 MOL     -0.042831
    153 C53         1.6560    2.5930    0.7310 c3        1 MOL     -0.003839
    154 C54         0.2260    1.9590    0.5920 c         1 MOL      0.682235
    155 O22        -0.5330    2.2000   -0.4000 o         1 MOL     -0.783178
    156 O23        -0.0970    0.9580    1.2700 o         1 MOL     -0.783178
    157 H67         4.3130    1.1750   -0.1480 hn        1 MOL      0.127722
    158 H68         4.2680    3.2770    1.9550 h1        1 MOL      0.110371
    159 H69         2.2280    2.2230    2.8080 hc        1 MOL      0.045487
    160 H70         2.4340    0.8830    1.8520 hc        1 MOL      0.045487
    161 H71         2.1040    2.4720   -0.2540 hc        1 MOL      0.035549
    162 H72         1.6060    3.6600    0.9290 hc        1 MOL      0.035549
    163 N14         5.4590    0.3800    2.4530 n         1 MOL     -0.099523
    164 C55         6.5010   -0.3420    3.2940 c3        1 MOL     -0.108964
    165 H73         6.0010   -0.9920    4.0120 h1        1 MOL      0.056317
    166 H74         7.1400   -0.9420    2.6460 h1        1 MOL      0.056317
    167 H75         7.1080    0.3890    3.8280 h1        1 MOL      0.056317
    168 H76         5.3700    0.0090    1.5190 hn        1 MOL      0.129600
    169 Ca1        -2.1670    0.1000   -0.2210 Ca        1 MOL      1.699466
    170 O24        -3.8080   -1.0000    1.5450 oh        1 MOL     -1.027065
    171 H77        -4.7370   -0.8160    1.6890 ho        1 MOL      0.445968
    172 H78        -3.3670   -0.6550    2.3240 ho        1 MOL      0.445968
@<TRIPOS>BOND
     1    1    2 1   
     2    1    4 1   
     3    1    5 1   
     4    1    6 1   
     5    2    3 2   
     6    2    7 1   
     7    7    8 1   
     8    7   15 1   
     9    8    9 1   
    10    8   11 1   
    11    8   16 1   
    12    9   10 2   
    13    9   19 1   
    14   11   12 1   
    15   11   17 1   
    16   11   18 1   
    17   12   13 1   
    18   12   14 1   
    19   19   20 1   
    20   19   24 1   
    21   20   21 1   
    22   20   23 1   
    23   20   25 1   
    24   21   22 2   
    25   21   29 1   
    26   23   26 1   
    27   23   27 1   
    28   23   28 1   
    29   29   30 1   
    30   29   37 1   
    31   30   31 1   
    32   30   33 1   
    33   30   38 1   
    34   31   32 2   
    35   31   41 1   
    36   33   34 1   
    37   33   39 1   
    38   33   40 1   
    39   34   35 1   
    40   34   36 1   
    41   41   42 1   
    42   41   45 1   
    43   42   43 1   
    44   42   46 1   
    45   42   47 1   
    46   43   44 2   
    47   43   48 1   
    48   48   49 1   
    49   48   56 1   
    50   49   50 1   
    51   49   52 1   
    52   49   57 1   
    53   50   51 2   
    54   50   62 1   
    55   52   53 1   
    56   52   58 1   
    57   52   59 1   
    58   53   54 1   
    59   53   55 2   
    60   54   60 1   
    61   54   61 1   
    62   62   63 1   
    63   62   66 1   
    64   63   64 1   
    65   63   67 1   
    66   63   68 1   
    67   64   65 2   
    68   64   69 1   
    69   69   70 1   
    70   69   76 1   
    71   70   71 1   
    72   70   73 1   
    73   70   77 1   
    74   71   72 2   
    75   71   83 1   
    76   73   74 1   
    77   73   75 1   
    78   73   78 1   
    79   74   80 1   
    80   74   81 1   
    81   74   82 1   
    82   75   79 1   
    83   83   84 1   
    84   83   91 1   
    85   84   85 1   
    86   84   87 1   
    87   84   92 1   
    88   85   86 2   
    89   85  102 1   
    90   87   88 1   
    91   87   89 1   
    92   87   93 1   
    93   88   90 1   
    94   88   94 1   
    95   88   95 1   
    96   89   96 1   
    97   89   97 1   
    98   89   98 1   
    99   90   99 1   
   100   90  100 1   
   101   90  101 1   
   102  102  103 1   
   103  102  110 1   
   104  103  104 1   
   105  103  106 1   
   106  103  111 1   
   107  104  105 2   
   108  104  114 1   
   109  106  107 1   
   110  106  112 1   
   111  106  113 1   
   112  107  108 1   
   113  107  109 1   
   114  114  115 1   
   115  114  125 1   
   116  115  116 1   
   117  115  118 1   
   118  115  126 1   
   119  116  117 2   
   120  116  134 1   
   121  118  119 1   
   122  118  127 1   
   123  118  128 1   
   124  119  120 ar  
   125  119  121 ar  
   126  120  122 ar  
   127  120  129 1   
   128  121  123 ar  
   129  121  130 1   
   130  122  124 ar  
   131  122  131 1   
   132  123  124 ar  
   133  123  132 1   
   134  124  133 1   
   135  134  135 1   
   136  134  140 1   
   137  135  136 1   
   138  135  138 1   
   139  135  141 1   
   140  136  137 2   
   141  136  148 1   
   142  138  139 1   
   143  138  142 1   
   144  138  143 1   
   145  139  140 1   
   146  139  144 1   
   147  139  145 1   
   148  140  146 1   
   149  140  147 1   
   150  148  149 1   
   151  148  157 1   
   152  149  150 1   
   153  149  152 1   
   154  149  158 1   
   155  150  151 2   
   156  150  163 1   
   157  152  153 1   
   158  152  159 1   
   159  152  160 1   
   160  153  154 1   
   161  153  161 1   
   162  153  162 1   
   163  154  155 1   
   164  154  156 1   
   165  163  164 1   
   166  163  168 1   
   167  164  165 1   
   168  164  166 1   
   169  164  167 1   
   170  170  171 1   
   171  170  172 1   
@<TRIPOS>SUBSTRUCTURE
     1 MOL         1 TEMP              0 ****  ****    0 ROOT
