@<TRIPOS>MOLECULE
MOL
  189   185     1     0     0
SMALL
resp


@<TRIPOS>ATOM
      1 C1          0.8130    1.9330    5.3600 c3        1 MOL     -0.448896
      2 C2          0.1510    2.1550    4.0550 c         1 MOL      0.672437
      3 O1          0.8570    2.5190    3.1040 o         1 MOL     -0.601032
      4 H1          1.3480    2.8360    5.6540 hc        1 MOL      0.123414
      5 H2          0.0620    1.6950    6.1130 hc        1 MOL      0.123414
      6 H3          1.5180    1.1060    5.2750 hc        1 MOL      0.123414
      7 N1         -1.1420    1.9020    3.9330 n         1 MOL     -0.618853
      8 C3         -1.8390    1.7460    2.6900 c3        1 MOL      0.458367
      9 C4         -2.2170    3.0330    2.0000 c         1 MOL      0.222903
     10 O2         -3.3970    3.5070    1.9220 o         1 MOL     -0.477208
     11 C5         -2.9880    0.7420    2.9100 c3        1 MOL     -0.447571
     12 C6         -3.7450    0.3540    1.6050 c         1 MOL      0.829692
     13 O3         -3.2270    0.4380    0.5010 o         1 MOL     -0.677892
     14 O4         -4.9250   -0.1140    1.7380 o         1 MOL     -0.677892
     15 H4         -1.6660    1.6990    4.7790 hn        1 MOL      0.325415
     16 H5         -1.1650    1.2460    1.9960 h1        1 MOL     -0.033147
     17 H6         -3.7470    1.2370    3.5180 hc        1 MOL      0.101573
     18 H7         -2.5320   -0.1650    3.2860 hc        1 MOL      0.101573
     19 N2         -1.2440    3.6500    1.3280 n         1 MOL     -0.019487
     20 C7         -1.3460    5.0800    0.8840 c3        1 MOL     -0.046952
     21 C8         -2.1550    5.3310   -0.3270 c         1 MOL      0.462457
     22 O5         -2.8930    6.3540   -0.3810 o         1 MOL     -0.574178
     23 C9          0.0270    5.6890    0.6940 c3        1 MOL     -0.245993
     24 C10         0.8150    5.8130    1.9700 c3        1 MOL      0.394047
     25 C11         0.1520    6.4230    3.2050 c3        1 MOL     -0.150591
     26 C12         1.1180    7.1370    4.1740 c3        1 MOL      0.037732
     27 N3          2.3010    6.2550    4.5830 n4        1 MOL     -0.377906
     28 H8         -0.3530    3.1660    1.3480 hn        1 MOL      0.170279
     29 H9         -1.7850    5.5970    1.7420 h1        1 MOL      0.065561
     30 H10        -0.0540    6.6730    0.2560 hc        1 MOL      0.069831
     31 H11         0.5800    5.0050    0.0370 hc        1 MOL      0.069831
     32 H12         1.7320    6.3610    1.7260 hc        1 MOL     -0.090595
     33 H13         1.1390    4.8020    2.2380 hc        1 MOL     -0.090595
     34 H14        -0.3420    5.6450    3.7890 hc        1 MOL      0.063665
     35 H15        -0.5510    7.1970    2.9200 hc        1 MOL      0.063665
     36 H16         0.6180    7.5260    5.0680 hx        1 MOL      0.083772
     37 H17         1.4880    8.0350    3.6800 hx        1 MOL      0.083772
     38 H18         2.0200    5.6250    5.3300 hn        1 MOL      0.327656
     39 H19         2.5450    5.6800    3.7900 hn        1 MOL      0.327656
     40 H20         3.1220    6.7920    4.8350 hn        1 MOL      0.327656
     41 N4         -2.1970    4.4290   -1.2590 n         1 MOL     -0.253732
     42 C13        -3.2330    4.4400   -2.3460 c3        1 MOL     -0.005112
     43 C14        -4.5440    3.7080   -1.9830 c         1 MOL      0.455942
     44 O6         -5.5230    3.9330   -2.7100 o         1 MOL     -0.537685
     45 C15        -2.7290    3.8830   -3.7000 c3        1 MOL     -0.478538
     46 C16        -2.0320    2.5200   -3.6030 c         1 MOL      0.876126
     47 O7         -1.2980    2.2000   -4.5540 o         1 MOL     -0.736310
     48 O8         -2.3790    1.6360   -2.8030 o         1 MOL     -0.736310
     49 H21        -1.7090    3.5760   -1.0270 hn        1 MOL      0.150599
     50 H22        -3.3960    5.4810   -2.6080 h1        1 MOL      0.131843
     51 H23        -2.0710    4.6050   -4.1930 hc        1 MOL      0.142843
     52 H24        -3.5920    3.6850   -4.3340 hc        1 MOL      0.142843
     53 N5         -4.5620    2.8990   -0.9440 n         1 MOL     -0.045166
     54 C17        -5.8890    2.5920   -0.3320 c3        1 MOL      0.008293
     55 C18        -6.7120    1.5640   -1.0750 c         1 MOL      0.611733
     56 O9         -7.6580    1.8190   -1.9070 o         1 MOL     -0.554852
     57 H25        -3.6850    2.6250   -0.5260 hn        1 MOL      0.052350
     58 H26        -6.5870    3.4130   -0.2530 h1        1 MOL      0.029279
     59 H27        -5.6720    2.3780    0.7200 h1        1 MOL      0.029279
     60 N6         -6.4530    0.2650   -0.8160 n         1 MOL     -0.531869
     61 C19        -6.9910   -0.9130   -1.5460 c3        1 MOL      0.177067
     62 C20        -7.1270   -2.0710   -0.5550 c         1 MOL      0.393109
     63 O10        -7.6120   -3.1010   -0.9710 o         1 MOL     -0.519412
     64 C21        -6.1810   -1.3320   -2.7570 c3        1 MOL     -0.185443
     65 C22        -4.6610   -1.5240   -2.5270 c         1 MOL      0.780829
     66 O11        -3.9400   -0.9950   -3.4390 o         1 MOL     -0.723316
     67 O12        -4.1950   -2.1340   -1.5910 o         1 MOL     -0.723316
     68 H28        -5.7140    0.0460   -0.1680 hn        1 MOL      0.117317
     69 H29        -8.0150   -0.7280   -1.8530 h1        1 MOL      0.069369
     70 H30        -6.4120   -0.6350   -3.5650 hc        1 MOL      0.060441
     71 H31        -6.5830   -2.2730   -3.1150 hc        1 MOL      0.060441
     72 N7         -6.7880   -1.9430    0.7340 n         1 MOL     -0.278319
     73 C23        -6.7260   -2.9980    1.7220 c3        1 MOL     -0.173715
     74 C24        -5.6640   -4.0480    1.4760 c         1 MOL      0.543775
     75 O13        -5.8360   -5.1510    2.0370 o         1 MOL     -0.562201
     76 H32        -6.4620   -1.0730    1.1210 hn        1 MOL      0.284698
     77 H33        -7.6680   -3.5400    1.8390 h1        1 MOL      0.103957
     78 H34        -6.5690   -2.5540    2.7000 h1        1 MOL      0.103957
     79 N8         -4.5950   -3.8610    0.6410 n         1 MOL     -0.169169
     80 C25        -3.3520   -4.5600    0.7210 c3        1 MOL     -0.439251
     81 C26        -2.1410   -3.6380    0.8580 c         1 MOL      0.876763
     82 O14        -2.1750   -2.5180    0.3950 o         1 MOL     -0.673278
     83 C27        -3.1360   -5.4370   -0.4910 c3        1 MOL      0.541023
     84 C28        -3.8550   -6.7470   -0.3480 c3        1 MOL     -0.519414
     85 O15        -3.3940   -4.7380   -1.6930 oh        1 MOL     -0.589155
     86 H35        -4.5450   -3.0920   -0.0220 hn        1 MOL      0.203176
     87 H36        -3.3240   -5.2180    1.5970 h1        1 MOL      0.135951
     88 H37        -2.1020   -5.7590   -0.6250 h1        1 MOL     -0.044039
     89 H38        -3.5610   -3.8470   -1.3820 ho        1 MOL      0.409867
     90 H39        -3.8410   -7.2580    0.6140 hc        1 MOL      0.130471
     91 H40        -4.8600   -6.5030   -0.6930 hc        1 MOL      0.130471
     92 H41        -3.4490   -7.3990   -1.1280 hc        1 MOL      0.130471
     93 N9         -1.0840   -4.0510    1.5570 n         1 MOL     -0.750873
     94 C29         0.1700   -3.3080    1.7600 c3        1 MOL      0.256913
     95 C30         1.3150   -3.7840    0.7730 c         1 MOL      0.291916
     96 O16         1.6010   -5.0120    0.7780 o         1 MOL     -0.550202
     97 C31         0.5490   -3.3510    3.3020 c3        1 MOL      0.189990
     98 C32        -0.3770   -2.4930    4.2450 c3        1 MOL      0.230550
     99 C33         1.9780   -3.0200    3.5570 c3        1 MOL     -0.364134
    100 C34        -0.3810   -2.9340    5.7600 c3        1 MOL     -0.373048
    101 H42        -1.1280   -5.0360    1.8000 hn        1 MOL      0.317488
    102 H43        -0.0530   -2.2540    1.5360 h1        1 MOL      0.004597
    103 H44         0.2510   -4.3590    3.5950 hc        1 MOL      0.003147
    104 H45        -1.3840   -2.5380    3.8320 hc        1 MOL     -0.038716
    105 H46        -0.2000   -1.4270    4.1130 hc        1 MOL     -0.038716
    106 H47         2.2190   -2.0560    3.0990 hc        1 MOL      0.052507
    107 H48         2.1090   -3.0190    4.6400 hc        1 MOL      0.052507
    108 H49         2.5320   -3.8150    3.0760 hc        1 MOL      0.052507
    109 H50        -1.1620   -2.4130    6.3190 hc        1 MOL      0.089643
    110 H51        -0.4200   -4.0230    5.7820 hc        1 MOL      0.089643
    111 H52         0.5530   -2.5640    6.1760 hc        1 MOL      0.089643
    112 N10         2.0030   -2.9110    0.1140 n         1 MOL      0.148697
    113 C35         3.1780   -3.2440   -0.7290 c3        1 MOL     -0.001938
    114 C36         4.5580   -3.0440   -0.0970 c         1 MOL      0.225835
    115 O17         4.6980   -2.4040    0.9620 o         1 MOL     -0.324162
    116 C37         3.1170   -2.5100   -2.0650 c3        1 MOL      0.292982
    117 C38         1.9200   -3.0750   -2.8490 c3        1 MOL     -0.447197
    118 O18         2.8770   -1.1600   -1.9420 oh        1 MOL     -0.603322
    119 H53         1.6190   -1.9850    0.0310 hn        1 MOL      0.027150
    120 H54         3.0800   -4.3150   -0.9570 h1        1 MOL      0.052734
    121 H55         4.0020   -2.6840   -2.6630 h1        1 MOL      0.038595
    122 H56         1.9340   -1.0240   -1.7830 ho        1 MOL      0.420857
    123 H57         1.7650   -2.4230   -3.7040 hc        1 MOL      0.107172
    124 H58         2.1910   -4.1010   -3.0880 hc        1 MOL      0.107172
    125 H59         1.0650   -3.0970   -2.1710 hc        1 MOL      0.107172
    126 N11         5.6520   -3.5810   -0.6560 n         1 MOL     -0.158117
    127 C39         7.0370   -3.1310   -0.3320 c3        1 MOL     -0.312014
    128 C40         7.2030   -1.5710   -0.2780 c         1 MOL      0.394861
    129 O19         8.0050   -1.0580    0.5060 o         1 MOL     -0.474161
    130 C41         8.0900   -3.6560   -1.3100 c3        1 MOL      0.394332
    131 C42         8.0510   -5.1780   -1.3010 c3        1 MOL     -0.485066
    132 O20         7.8420   -3.2290   -2.6520 oh        1 MOL     -0.631533
    133 H60         5.6460   -4.2040   -1.4460 hn        1 MOL      0.232070
    134 H61         7.3180   -3.4530    0.6690 h1        1 MOL      0.174257
    135 H62         9.1330   -3.3940   -1.1030 h1        1 MOL      0.055373
    136 H63         8.6670   -3.0770   -3.1090 ho        1 MOL      0.410497
    137 H64         8.9140   -5.5270   -1.8670 hc        1 MOL      0.134647
    138 H65         7.9770   -5.6240   -0.3030 hc        1 MOL      0.134647
    139 H66         7.1780   -5.5480   -1.8360 hc        1 MOL      0.134647
    140 N12         6.6670   -0.8240   -1.2810 n         1 MOL     -0.323885
    141 C43         6.6770    0.6480   -1.3990 c3        1 MOL     -0.017003
    142 C44         5.9420    1.2440   -0.2260 c         1 MOL      0.272184
    143 O21         6.3880    2.2240    0.3750 o         1 MOL     -0.520230
    144 C45         6.0610    0.9360   -2.7660 c3        1 MOL     -0.063910
    145 C46         6.0720    2.4320   -2.9360 c3        1 MOL     -0.111735
    146 C47         5.6380    2.7990   -4.4000 c3        1 MOL      0.080542
    147 C48         5.7830    4.3200   -4.6490 c3        1 MOL      0.029997
    148 N13         5.5480    4.5660   -6.0890 n4        1 MOL     -0.511793
    149 H67         6.2240   -1.4050   -1.9660 hn        1 MOL      0.223986
    150 H68         7.7000    1.0330   -1.4370 h1        1 MOL      0.134058
    151 H69         4.9870    0.7120   -2.7720 hc        1 MOL      0.043193
    152 H70         6.5920    0.4680   -3.5970 hc        1 MOL      0.043193
    153 H71         7.0650    2.8300   -2.7350 hc        1 MOL      0.041823
    154 H72         5.3320    2.9150   -2.2950 hc        1 MOL      0.041823
    155 H73         4.5860    2.5650   -4.5310 hc        1 MOL      0.022196
    156 H74         6.2390    2.2270   -5.1160 hc        1 MOL      0.022196
    157 H75         6.8180    4.5520   -4.4120 hx        1 MOL      0.090272
    158 H76         5.0950    4.9250   -4.0530 hx        1 MOL      0.090272
    159 H77         6.1760    4.0220   -6.6650 hn        1 MOL      0.364097
    160 H78         4.5530    4.4250   -6.2180 hn        1 MOL      0.364097
    161 H79         5.8500    5.5110   -6.2750 hn        1 MOL      0.364097
    162 N14         4.9100    0.5730    0.2680 n         1 MOL      0.185039
    163 C49         4.1160    1.0660    1.3880 c3        1 MOL     -0.140689
    164 C50         4.7240    0.8400    2.8070 c         1 MOL      0.453986
    165 O22         4.7050    1.7440    3.7130 o         1 MOL     -0.591900
    166 C51         2.7300    0.4380    1.2530 c3        1 MOL      0.143973
    167 C52         1.8820    1.2100    0.2790 c3        1 MOL     -0.413814
    168 C53         0.6400    0.4900   -0.2130 c         1 MOL      0.863480
    169 O23         0.5520   -0.6660   -0.5970 o         1 MOL     -0.733341
    170 O24        -0.2930    1.2740   -0.4610 o         1 MOL     -0.733341
    171 H80         4.6320   -0.2160   -0.2980 hn        1 MOL      0.115858
    172 H81         3.9020    2.1350    1.3090 h1        1 MOL      0.049870
    173 H82         2.2200    0.5860    2.2090 hc        1 MOL     -0.000911
    174 H83         2.8420   -0.6080    0.9880 hc        1 MOL     -0.000911
    175 H84         2.4410    1.3350   -0.6420 hc        1 MOL      0.097504
    176 H85         1.5860    2.1520    0.7290 hc        1 MOL      0.097504
    177 N15         5.2940   -0.3300    2.9370 n         1 MOL     -0.116385
    178 C54         6.3240   -0.6870    3.9730 c3        1 MOL     -0.308980
    179 H86         6.8440    0.2160    4.2940 h1        1 MOL      0.122130
    180 H87         5.8330   -1.1470    4.8300 h1        1 MOL      0.122130
    181 H88         7.0420   -1.3860    3.5460 h1        1 MOL      0.122130
    182 H89         5.2130   -1.0250    2.2110 hn        1 MOL      0.153430
    183 Ca1        -1.9770   -0.5280   -1.4470 Ca        1 MOL      1.751513
    184 O25        -1.4610   -2.8230   -2.4190 oh        1 MOL     -0.874130
    185 H90        -1.6130   -3.7440   -2.5980 ho        1 MOL      0.403321
    186 H91        -0.8430   -2.5390   -3.0970 ho        1 MOL      0.403321
    187 O26        -0.4850   -0.3510   -3.8850 oh        1 MOL     -0.874130
    188 H92        -0.7730    0.5210   -4.1630 ho        1 MOL      0.403321
    189 H93        -0.6520   -0.9110   -4.6450 ho        1 MOL      0.403321
@<TRIPOS>BOND
     1    1    2 1   
     2    1    4 1   
     3    1    5 1   
     4    1    6 1   
     5    2    3 2   
     6    2    7 1   
     7    7    8 1   
     8    7   15 1   
     9    8    9 1   
    10    8   11 1   
    11    8   16 1   
    12    9   10 2   
    13    9   19 1   
    14   11   12 1   
    15   11   17 1   
    16   11   18 1   
    17   12   13 1   
    18   12   14 1   
    19   19   20 1   
    20   19   28 1   
    21   20   21 1   
    22   20   23 1   
    23   20   29 1   
    24   21   22 2   
    25   21   41 1   
    26   23   24 1   
    27   23   30 1   
    28   23   31 1   
    29   24   25 1   
    30   24   32 1   
    31   24   33 1   
    32   25   26 1   
    33   25   34 1   
    34   25   35 1   
    35   26   27 1   
    36   26   36 1   
    37   26   37 1   
    38   27   38 1   
    39   27   39 1   
    40   27   40 1   
    41   41   42 1   
    42   41   49 1   
    43   42   43 1   
    44   42   45 1   
    45   42   50 1   
    46   43   44 2   
    47   43   53 1   
    48   45   46 1   
    49   45   51 1   
    50   45   52 1   
    51   46   47 1   
    52   46   48 1   
    53   53   54 1   
    54   53   57 1   
    55   54   55 1   
    56   54   58 1   
    57   54   59 1   
    58   55   56 2   
    59   55   60 1   
    60   60   61 1   
    61   60   68 1   
    62   61   62 1   
    63   61   64 1   
    64   61   69 1   
    65   62   63 2   
    66   62   72 1   
    67   64   65 1   
    68   64   70 1   
    69   64   71 1   
    70   65   66 1   
    71   65   67 1   
    72   72   73 1   
    73   72   76 1   
    74   73   74 1   
    75   73   77 1   
    76   73   78 1   
    77   74   75 2   
    78   74   79 1   
    79   79   80 1   
    80   79   86 1   
    81   80   81 1   
    82   80   83 1   
    83   80   87 1   
    84   81   82 2   
    85   81   93 1   
    86   83   84 1   
    87   83   85 1   
    88   83   88 1   
    89   84   90 1   
    90   84   91 1   
    91   84   92 1   
    92   85   89 1   
    93   93   94 1   
    94   93  101 1   
    95   94   95 1   
    96   94   97 1   
    97   94  102 1   
    98   95   96 2   
    99   95  112 1   
   100   97   98 1   
   101   97   99 1   
   102   97  103 1   
   103   98  100 1   
   104   98  104 1   
   105   98  105 1   
   106   99  106 1   
   107   99  107 1   
   108   99  108 1   
   109  100  109 1   
   110  100  110 1   
   111  100  111 1   
   112  112  113 1   
   113  112  119 1   
   114  113  114 1   
   115  113  116 1   
   116  113  120 1   
   117  114  115 2   
   118  114  126 1   
   119  116  117 1   
   120  116  118 1   
   121  116  121 1   
   122  117  123 1   
   123  117  124 1   
   124  117  125 1   
   125  118  122 1   
   126  126  127 1   
   127  126  133 1   
   128  127  128 1   
   129  127  130 1   
   130  127  134 1   
   131  128  129 2   
   132  128  140 1   
   133  130  131 1   
   134  130  132 1   
   135  130  135 1   
   136  131  137 1   
   137  131  138 1   
   138  131  139 1   
   139  132  136 1   
   140  140  141 1   
   141  140  149 1   
   142  141  142 1   
   143  141  144 1   
   144  141  150 1   
   145  142  143 2   
   146  142  162 1   
   147  144  145 1   
   148  144  151 1   
   149  144  152 1   
   150  145  146 1   
   151  145  153 1   
   152  145  154 1   
   153  146  147 1   
   154  146  155 1   
   155  146  156 1   
   156  147  148 1   
   157  147  157 1   
   158  147  158 1   
   159  148  159 1   
   160  148  160 1   
   161  148  161 1   
   162  162  163 1   
   163  162  171 1   
   164  163  164 1   
   165  163  166 1   
   166  163  172 1   
   167  164  165 2   
   168  164  177 1   
   169  166  167 1   
   170  166  173 1   
   171  166  174 1   
   172  167  168 1   
   173  167  175 1   
   174  167  176 1   
   175  168  169 1   
   176  168  170 1   
   177  177  178 1   
   178  177  182 1   
   179  178  179 1   
   180  178  180 1   
   181  178  181 1   
   182  184  185 1   
   183  184  186 1   
   184  187  188 1   
   185  187  189 1   
@<TRIPOS>SUBSTRUCTURE
     1 MOL         1 TEMP              0 ****  ****    0 ROOT
