@<TRIPOS>MOLECULE
MOL
  189   185     1     0     0
SMALL
resp


@<TRIPOS>ATOM
      1 C1         -0.1340    1.4830    6.2390 c3        1 MOL     -0.330276
      2 C2         -0.4170    1.2710    4.7590 c         1 MOL      0.707056
      3 O1          0.4540    1.6480    4.0540 o         1 MOL     -0.576922
      4 H1          0.6880    2.1900    6.3530 hc        1 MOL      0.079299
      5 H2         -1.0250    1.8800    6.7260 hc        1 MOL      0.079299
      6 H3          0.1390    0.5330    6.6970 hc        1 MOL      0.079299
      7 N1         -1.6760    0.8630    4.3680 n         1 MOL     -0.531153
      8 C3         -2.1580    0.8940    3.0010 c3        1 MOL      0.044990
      9 C4         -2.6810    2.2650    2.7080 c         1 MOL      0.525602
     10 O2         -3.6880    2.6770    3.3410 o         1 MOL     -0.525083
     11 C5         -3.1930   -0.1700    2.7710 c3        1 MOL     -0.139393
     12 C6         -4.0500   -0.0190    1.5340 c         1 MOL      0.682694
     13 O3         -3.5980    0.4680    0.4610 o         1 MOL     -0.656873
     14 O4         -5.1570   -0.5780    1.5990 o         1 MOL     -0.656873
     15 H4         -2.2920    0.5650    5.1070 hn        1 MOL      0.312731
     16 H5         -1.2800    0.6860    2.3750 h1        1 MOL     -0.007316
     17 H6         -3.8360   -0.2740    3.6470 hc        1 MOL      0.048368
     18 H7         -2.7140   -1.1480    2.7820 hc        1 MOL      0.048368
     19 N2         -1.9120    3.0840    1.9190 n         1 MOL     -0.208616
     20 C7         -2.0390    4.5540    1.7730 c3        1 MOL     -0.144901
     21 C8         -3.1860    5.1010    0.8520 c         1 MOL      0.484322
     22 O5         -3.8000    6.1220    1.1600 o         1 MOL     -0.562721
     23 C9         -0.7820    5.1890    1.2750 c3        1 MOL     -0.052998
     24 C10        -0.3740    4.7390   -0.1890 c3        1 MOL      0.047117
     25 C11         1.1050    5.1270   -0.4460 c3        1 MOL     -0.078864
     26 C12         1.3650    6.6570   -0.5670 c3        1 MOL      0.016443
     27 N3          2.6150    7.2100    0.0070 n4        1 MOL     -0.411531
     28 H8         -1.1100    2.6750    1.4690 hn        1 MOL      0.187096
     29 H9         -2.2290    5.0000    2.7460 h1        1 MOL      0.111105
     30 H10         0.0910    4.9990    1.9090 hc        1 MOL      0.034132
     31 H11        -0.9920    6.2460    1.3860 hc        1 MOL      0.034132
     32 H12        -1.0000    5.2350   -0.9380 hc        1 MOL      0.016232
     33 H13        -0.4460    3.6530   -0.2740 hc        1 MOL      0.016232
     34 H14         1.4820    4.5640   -1.3010 hc        1 MOL      0.037632
     35 H15         1.6680    4.7570    0.4110 hc        1 MOL      0.037632
     36 H16         0.5910    7.1930   -0.0240 hx        1 MOL      0.090081
     37 H17         1.2740    6.9090   -1.6230 hx        1 MOL      0.090081
     38 H18         2.5310    6.9860    0.9880 hn        1 MOL      0.341573
     39 H19         3.3970    6.6870   -0.3700 hn        1 MOL      0.341573
     40 H20         2.7610    8.1950   -0.1680 hn        1 MOL      0.341573
     41 N4         -3.6170    4.2980   -0.0780 n         1 MOL     -0.111386
     42 C13        -4.5680    4.6390   -1.0980 c3        1 MOL      0.051929
     43 C14        -5.9340    3.8660   -0.9380 c         1 MOL      0.444988
     44 O6         -6.9730    3.9970   -1.6140 o         1 MOL     -0.486447
     45 C15        -3.8770    4.5500   -2.5050 c3        1 MOL     -0.167012
     46 C16        -2.8760    3.4330   -2.8270 c         1 MOL      0.903931
     47 O7         -2.2600    3.5950   -3.9180 o         1 MOL     -0.734034
     48 O8         -2.8130    2.5100   -1.9840 o         1 MOL     -0.734034
     49 H21        -3.1510    3.4040   -0.2080 hn        1 MOL     -0.171220
     50 H22        -4.9790    5.6360   -0.9480 h1        1 MOL      0.062776
     51 H23        -3.3960    5.5130   -2.7320 hc        1 MOL      0.029222
     52 H24        -4.6580    4.3170   -3.2190 hc        1 MOL      0.029222
     53 N5         -5.8430    2.7980    0.0120 n         1 MOL     -0.134267
     54 C17        -6.8830    1.9270    0.5510 c3        1 MOL     -0.405661
     55 C18        -7.4720    0.9100   -0.4380 c         1 MOL      0.770292
     56 O9         -8.6410    0.9360   -0.9160 o         1 MOL     -0.598060
     57 H25        -4.9160    2.4890    0.2600 hn        1 MOL      0.215299
     58 H26        -7.7260    2.6030    0.7360 h1        1 MOL      0.135611
     59 H27        -6.6360    1.4850    1.5120 h1        1 MOL      0.135611
     60 N6         -6.7390   -0.1420   -0.6980 n         1 MOL     -0.542939
     61 C19        -7.0350   -1.1320   -1.7340 c3        1 MOL      0.039092
     62 C20        -7.0340   -2.6300   -1.2210 c         1 MOL      0.345651
     63 O10        -7.0610   -3.6010   -1.9770 o         1 MOL     -0.471309
     64 C21        -6.2460   -0.8690   -3.0330 c3        1 MOL     -0.229371
     65 C22        -4.7920   -0.5990   -2.6090 c         1 MOL      0.816797
     66 O11        -4.0170    0.2000   -3.2020 o         1 MOL     -0.736682
     67 O12        -4.3160   -1.3530   -1.7420 o         1 MOL     -0.736682
     68 H28        -5.9100   -0.3150   -0.1460 hn        1 MOL      0.309832
     69 H29        -8.0300   -1.0240   -2.1700 h1        1 MOL      0.127267
     70 H30        -6.6610    0.0420   -3.4520 hc        1 MOL      0.078489
     71 H31        -6.2500   -1.6910   -3.7530 hc        1 MOL      0.078489
     72 N7         -6.9060   -2.7860    0.0990 n         1 MOL     -0.259794
     73 C23        -6.8010   -4.0980    0.7320 c3        1 MOL     -0.177736
     74 C24        -5.4010   -4.7010    0.5650 c         1 MOL      0.601256
     75 O13        -5.1870   -5.9160    0.7590 o         1 MOL     -0.590035
     76 H32        -6.7700   -1.9500    0.6600 hn        1 MOL      0.247156
     77 H33        -7.4720   -4.8440    0.2900 h1        1 MOL      0.110187
     78 H34        -6.9440   -4.0400    1.8060 h1        1 MOL      0.110187
     79 N8         -4.4150   -3.8680    0.2330 n         1 MOL     -0.468316
     80 C25        -3.0950   -4.3580   -0.2500 c3        1 MOL     -0.136299
     81 C26        -1.8470   -3.4450    0.0220 c         1 MOL      0.622635
     82 O14        -1.7720   -2.3000   -0.3640 o         1 MOL     -0.600959
     83 C27        -3.0600   -4.7280   -1.7380 c3        1 MOL      0.575128
     84 C28        -3.5000   -6.1390   -2.1070 c3        1 MOL     -0.189801
     85 O15        -3.7350   -3.7830   -2.6080 oh        1 MOL     -0.676204
     86 H35        -4.6740   -2.8960    0.1050 hn        1 MOL      0.324537
     87 H36        -2.8320   -5.2490    0.3170 h1        1 MOL      0.094826
     88 H37        -2.0060   -4.8010   -1.9810 h1        1 MOL     -0.098250
     89 H38        -3.7370   -2.9960   -2.0520 ho        1 MOL      0.505580
     90 H39        -2.9590   -6.5690   -2.9450 hc        1 MOL      0.036308
     91 H40        -3.1950   -6.7810   -1.2830 hc        1 MOL      0.036308
     92 H41        -4.5500   -6.1840   -2.4010 hc        1 MOL      0.036308
     93 N9         -0.8380   -4.0000    0.6530 n         1 MOL     -0.529686
     94 C29         0.4550   -3.4550    1.0560 c3        1 MOL      0.030109
     95 C30         1.5770   -3.7940    0.0510 c         1 MOL      0.541785
     96 O16         2.0810   -4.9110    0.0640 o         1 MOL     -0.544034
     97 C31         0.7370   -3.7760    2.5580 c3        1 MOL      0.016346
     98 C32        -0.1440   -2.8010    3.3680 c3        1 MOL      0.162420
     99 C33         2.2280   -3.6390    2.9450 c3        1 MOL     -0.331570
    100 C34        -0.1220   -2.8280    4.8380 c3        1 MOL     -0.365643
    101 H42        -0.9070   -4.9780    0.8780 hn        1 MOL      0.287623
    102 H43         0.3240   -2.3730    1.0300 h1        1 MOL      0.046377
    103 H44         0.2990   -4.7240    2.8680 hc        1 MOL      0.040497
    104 H45        -1.1660   -2.9510    3.0140 hc        1 MOL      0.004500
    105 H46         0.0630   -1.7570    3.1340 hc        1 MOL      0.004500
    106 H47         2.3370   -3.6090    4.0230 hc        1 MOL      0.089083
    107 H48         2.8350   -4.4360    2.4960 hc        1 MOL      0.089083
    108 H49         2.5470   -2.7060    2.4830 hc        1 MOL      0.089083
    109 H50        -1.0050   -2.3190    5.2350 hc        1 MOL      0.083573
    110 H51        -0.0370   -3.8600    5.1790 hc        1 MOL      0.083573
    111 H52         0.8040   -2.4310    5.2580 hc        1 MOL      0.083573
    112 N10         2.0440   -2.8060   -0.6710 n         1 MOL     -0.297006
    113 C35         3.2970   -2.7540   -1.4980 c3        1 MOL     -0.088761
    114 C36         4.5720   -2.7700   -0.6880 c         1 MOL      0.417221
    115 O17         4.5320   -2.6760    0.4800 o         1 MOL     -0.299147
    116 C37         3.2600   -1.6170   -2.5360 c3        1 MOL      0.235069
    117 C38         2.0750   -1.7110   -3.5530 c3        1 MOL     -0.165565
    118 O18         3.0600   -0.3400   -1.8700 oh        1 MOL     -0.610155
    119 H53         1.4880   -1.9560   -0.6700 hn        1 MOL      0.196064
    120 H54         3.4150   -3.6810   -2.0570 h1        1 MOL      0.078871
    121 H55         4.1960   -1.6420   -3.1000 h1        1 MOL      0.030468
    122 H56         2.2710   -0.4380   -1.3220 ho        1 MOL      0.375221
    123 H57         2.0700   -0.8430   -4.2090 hc        1 MOL      0.059850
    124 H58         2.2980   -2.5470   -4.2210 hc        1 MOL      0.059850
    125 H59         1.0730   -1.9380   -3.1850 hc        1 MOL      0.059850
    126 N11         5.7270   -2.7940   -1.3570 n         1 MOL     -0.364239
    127 C39         7.0380   -2.5680   -0.6150 c3        1 MOL     -0.049962
    128 C40         7.1050   -1.1710    0.0380 c         1 MOL      0.323564
    129 O19         7.3510   -1.0930    1.2710 o         1 MOL     -0.485650
    130 C41         8.3500   -2.6990   -1.4540 c3        1 MOL      0.187733
    131 C42         8.6470   -4.1280   -1.8720 c3        1 MOL     -0.332196
    132 O20         8.1240   -1.9210   -2.5970 oh        1 MOL     -0.609008
    133 H60         5.7220   -2.7780   -2.3690 hn        1 MOL      0.282749
    134 H61         7.0610   -3.3370    0.1550 h1        1 MOL      0.143551
    135 H62         9.1960   -2.2920   -0.9060 h1        1 MOL      0.068045
    136 H63         8.9690   -1.8750   -3.0540 ho        1 MOL      0.405767
    137 H64         9.6120   -4.2180   -2.3730 hc        1 MOL      0.103732
    138 H65         8.7650   -4.7370   -0.9710 hc        1 MOL      0.103732
    139 H66         7.7900   -4.5040   -2.4190 hc        1 MOL      0.103732
    140 N12         6.8070   -0.0620   -0.7160 n         1 MOL     -0.172084
    141 C43         6.8150    1.3740   -0.2340 c3        1 MOL     -0.225505
    142 C44         5.7070    1.6410    0.7650 c         1 MOL      0.638516
    143 O21         5.4360    2.7760    1.1160 o         1 MOL     -0.591601
    144 C45         6.7090    2.3220   -1.4660 c3        1 MOL     -0.093117
    145 C46         7.9300    2.2230   -2.4380 c3        1 MOL     -0.037799
    146 C47         9.2700    2.5530   -1.8790 c3        1 MOL     -0.124900
    147 C48        10.3000    2.3800   -2.9440 c3        1 MOL      0.120429
    148 N13        11.6000    2.9180   -2.4910 n4        1 MOL     -0.190040
    149 H67         6.6360   -0.2540   -1.6880 hn        1 MOL      0.273301
    150 H68         7.7520    1.5840    0.2870 h1        1 MOL      0.129777
    151 H69         6.6520    3.3480   -1.1010 hc        1 MOL      0.081647
    152 H70         5.7600    2.2360   -2.0050 hc        1 MOL      0.081647
    153 H71         7.6850    2.9830   -3.1920 hc        1 MOL      0.036607
    154 H72         7.9470    1.2690   -2.9710 hc        1 MOL      0.036607
    155 H73         9.6020    1.9450   -1.0290 hc        1 MOL      0.068843
    156 H74         9.2710    3.6080   -1.6390 hc        1 MOL      0.068843
    157 H75        10.0170    2.8870   -3.8610 hx        1 MOL      0.044539
    158 H76        10.4240    1.3010   -3.1000 hx        1 MOL      0.044539
    159 H77        12.3120    2.6110   -3.1430 hn        1 MOL      0.236585
    160 H78        11.6190    3.9280   -2.4700 hn        1 MOL      0.236585
    161 H79        11.8820    2.6410   -1.5610 hn        1 MOL      0.236585
    162 N14         4.8710    0.6170    1.2050 n         1 MOL     -0.250496
    163 C49         3.8510    0.5950    2.2500 c3        1 MOL     -0.070786
    164 C50         4.2420   -0.3260    3.4020 c         1 MOL      0.448832
    165 O22         3.9430   -0.0210    4.5610 o         1 MOL     -0.530082
    166 C51         2.4540    0.2290    1.6630 c3        1 MOL      0.035642
    167 C52         1.9230    1.2900    0.8240 c3        1 MOL      0.214295
    168 C53         0.6530    0.7870    0.0860 c         1 MOL      0.640149
    169 O23        -0.3960    1.4800    0.1900 o         1 MOL     -0.651219
    170 O24         0.6860   -0.2860   -0.4700 o         1 MOL     -0.651219
    171 H80         4.9570   -0.1930    0.6130 hn        1 MOL     -0.027723
    172 H81         3.7900    1.5960    2.6800 h1        1 MOL      0.111710
    173 H82         1.8100   -0.0540    2.5030 hc        1 MOL      0.057069
    174 H83         2.6440   -0.6520    1.0510 hc        1 MOL      0.057069
    175 H84         2.6100    1.6180    0.0470 hc        1 MOL     -0.062630
    176 H85         1.8690    2.1300    1.5150 hc        1 MOL     -0.062630
    177 N15         4.9990   -1.3940    3.1060 n         1 MOL     -0.117173
    178 C54         5.6210   -2.2050    4.2060 c3        1 MOL     -0.247254
    179 H86         6.4720   -1.6640    4.6190 h1        1 MOL      0.102126
    180 H87         4.8840   -2.3770    4.9910 h1        1 MOL      0.102126
    181 H88         5.9580   -3.1620    3.8070 h1        1 MOL      0.102126
    182 H89         5.0030   -1.7450    2.1590 hn        1 MOL      0.143442
    183 Ca1        -1.9540    0.2320   -1.4080 Ca        1 MOL      1.742508
    184 O25        -0.3770    1.6080   -3.2230 oh        1 MOL     -0.896322
    185 H90         0.3680    1.8480   -3.7840 ho        1 MOL      0.405655
    186 H91        -1.0160    2.3060   -3.3710 ho        1 MOL      0.405655
    187 O26        -1.5060   -1.7530   -3.2810 oh        1 MOL     -0.896322
    188 H92        -2.3860   -2.1210   -3.3990 ho        1 MOL      0.405655
    189 H93        -1.1840   -1.6330   -4.1700 ho        1 MOL      0.405655
@<TRIPOS>BOND
     1    1    2 1   
     2    1    4 1   
     3    1    5 1   
     4    1    6 1   
     5    2    3 2   
     6    2    7 1   
     7    7    8 1   
     8    7   15 1   
     9    8    9 1   
    10    8   11 1   
    11    8   16 1   
    12    9   10 2   
    13    9   19 1   
    14   11   12 1   
    15   11   17 1   
    16   11   18 1   
    17   12   13 1   
    18   12   14 1   
    19   19   20 1   
    20   19   28 1   
    21   20   21 1   
    22   20   23 1   
    23   20   29 1   
    24   21   22 2   
    25   21   41 1   
    26   23   24 1   
    27   23   30 1   
    28   23   31 1   
    29   24   25 1   
    30   24   32 1   
    31   24   33 1   
    32   25   26 1   
    33   25   34 1   
    34   25   35 1   
    35   26   27 1   
    36   26   36 1   
    37   26   37 1   
    38   27   38 1   
    39   27   39 1   
    40   27   40 1   
    41   41   42 1   
    42   41   49 1   
    43   42   43 1   
    44   42   45 1   
    45   42   50 1   
    46   43   44 2   
    47   43   53 1   
    48   45   46 1   
    49   45   51 1   
    50   45   52 1   
    51   46   47 1   
    52   46   48 1   
    53   53   54 1   
    54   53   57 1   
    55   54   55 1   
    56   54   58 1   
    57   54   59 1   
    58   55   56 2   
    59   55   60 1   
    60   60   61 1   
    61   60   68 1   
    62   61   62 1   
    63   61   64 1   
    64   61   69 1   
    65   62   63 2   
    66   62   72 1   
    67   64   65 1   
    68   64   70 1   
    69   64   71 1   
    70   65   66 1   
    71   65   67 1   
    72   72   73 1   
    73   72   76 1   
    74   73   74 1   
    75   73   77 1   
    76   73   78 1   
    77   74   75 2   
    78   74   79 1   
    79   79   80 1   
    80   79   86 1   
    81   80   81 1   
    82   80   83 1   
    83   80   87 1   
    84   81   82 2   
    85   81   93 1   
    86   83   84 1   
    87   83   85 1   
    88   83   88 1   
    89   84   90 1   
    90   84   91 1   
    91   84   92 1   
    92   85   89 1   
    93   93   94 1   
    94   93  101 1   
    95   94   95 1   
    96   94   97 1   
    97   94  102 1   
    98   95   96 2   
    99   95  112 1   
   100   97   98 1   
   101   97   99 1   
   102   97  103 1   
   103   98  100 1   
   104   98  104 1   
   105   98  105 1   
   106   99  106 1   
   107   99  107 1   
   108   99  108 1   
   109  100  109 1   
   110  100  110 1   
   111  100  111 1   
   112  112  113 1   
   113  112  119 1   
   114  113  114 1   
   115  113  116 1   
   116  113  120 1   
   117  114  115 2   
   118  114  126 1   
   119  116  117 1   
   120  116  118 1   
   121  116  121 1   
   122  117  123 1   
   123  117  124 1   
   124  117  125 1   
   125  118  122 1   
   126  126  127 1   
   127  126  133 1   
   128  127  128 1   
   129  127  130 1   
   130  127  134 1   
   131  128  129 2   
   132  128  140 1   
   133  130  131 1   
   134  130  132 1   
   135  130  135 1   
   136  131  137 1   
   137  131  138 1   
   138  131  139 1   
   139  132  136 1   
   140  140  141 1   
   141  140  149 1   
   142  141  142 1   
   143  141  144 1   
   144  141  150 1   
   145  142  143 2   
   146  142  162 1   
   147  144  145 1   
   148  144  151 1   
   149  144  152 1   
   150  145  146 1   
   151  145  153 1   
   152  145  154 1   
   153  146  147 1   
   154  146  155 1   
   155  146  156 1   
   156  147  148 1   
   157  147  157 1   
   158  147  158 1   
   159  148  159 1   
   160  148  160 1   
   161  148  161 1   
   162  162  163 1   
   163  162  171 1   
   164  163  164 1   
   165  163  166 1   
   166  163  172 1   
   167  164  165 2   
   168  164  177 1   
   169  166  167 1   
   170  166  173 1   
   171  166  174 1   
   172  167  168 1   
   173  167  175 1   
   174  167  176 1   
   175  168  169 1   
   176  168  170 1   
   177  177  178 1   
   178  177  182 1   
   179  178  179 1   
   180  178  180 1   
   181  178  181 1   
   182  184  185 1   
   183  184  186 1   
   184  187  188 1   
   185  187  189 1   
@<TRIPOS>SUBSTRUCTURE
     1 MOL         1 TEMP              0 ****  ****    0 ROOT
