@<TRIPOS>MOLECULE
MOL
  186   183     1     0     0
SMALL
resp


@<TRIPOS>ATOM
      1 C1          0.9630   -1.2790    6.6140 c3        1 MOL     -0.304361
      2 C2          1.1490   -1.3350    5.0820 c         1 MOL      0.796194
      3 O1          0.1780   -1.5010    4.3500 o         1 MOL     -0.600151
      4 H1          1.4270   -0.3730    7.0030 hc        1 MOL      0.067547
      5 H2         -0.1000   -1.2730    6.8510 hc        1 MOL      0.067547
      6 H3          1.4330   -2.1510    7.0690 hc        1 MOL      0.067547
      7 N1          2.3970   -1.0910    4.5960 n         1 MOL     -0.740347
      8 C3          2.8200   -1.2870    3.1630 c3        1 MOL      0.253179
      9 C4          3.0370   -2.8250    2.9280 c         1 MOL      0.529247
     10 O2          3.8190   -3.4100    3.6340 o         1 MOL     -0.578967
     11 C5          4.0890   -0.4790    2.9080 c3        1 MOL     -0.174672
     12 C6          4.6050   -0.7090    1.4900 c         1 MOL      0.742739
     13 O3          5.8670   -0.7210    1.4550 o         1 MOL     -0.661756
     14 O4          3.9240   -0.9290    0.4580 o         1 MOL     -0.661756
     15 H4          3.1760   -0.8360    5.1730 hn        1 MOL      0.349755
     16 H5          2.1340   -0.8200    2.4460 h1        1 MOL      0.058350
     17 H6          4.7900   -0.7010    3.7180 hc        1 MOL      0.022836
     18 H7          3.8730    0.5900    2.8950 hc        1 MOL      0.022836
     19 N2          2.3720   -3.4480    1.9160 n         1 MOL     -0.303973
     20 C7          2.3330   -4.9050    1.6020 c3        1 MOL     -0.018414
     21 C8          3.3080   -5.1930    0.4420 c         1 MOL      0.535258
     22 O5          3.8190   -6.3350    0.3770 o         1 MOL     -0.612198
     23 C9          0.8470   -5.2800    1.3450 c3        1 MOL      0.331544
     24 C10        -0.0260   -5.3020    2.6500 c3        1 MOL     -0.027038
     25 C11         0.7680   -6.7360    0.7590 c3        1 MOL     -0.382339
     26 C12        -1.5320   -5.5760    2.4670 c3        1 MOL     -0.046996
     27 H8          1.7850   -2.8660    1.3460 hn        1 MOL      0.150316
     28 H9          2.5890   -5.5880    2.4140 h1        1 MOL      0.040052
     29 H10         0.4590   -4.5440    0.6510 hc        1 MOL     -0.034071
     30 H11         0.1190   -4.3430    3.1530 hc        1 MOL     -0.011679
     31 H12         0.4080   -6.0630    3.3020 hc        1 MOL     -0.011679
     32 H13         1.1970   -6.7490   -0.2470 hc        1 MOL      0.080285
     33 H14         1.3770   -7.4080    1.3780 hc        1 MOL      0.080285
     34 H15        -0.2080   -7.2170    0.6700 hc        1 MOL      0.080285
     35 H16        -2.0530   -4.7970    1.9020 hc        1 MOL      0.005983
     36 H17        -1.6470   -6.4970    1.8900 hc        1 MOL      0.005983
     37 H18        -2.0490   -5.7870    3.4050 hc        1 MOL      0.005983
     38 N3          3.5990   -4.2980   -0.4680 n         1 MOL     -0.374622
     39 C13         4.1400   -4.6320   -1.8110 c3        1 MOL      0.009076
     40 C14         5.4640   -3.9890   -2.0960 c         1 MOL      0.316844
     41 O6          6.0160   -4.0900   -3.2150 o         1 MOL     -0.512578
     42 C15         3.0930   -4.2560   -2.8690 c3        1 MOL     -0.069118
     43 C16         2.7240   -2.7980   -2.9860 c         1 MOL      0.857000
     44 O7          1.7500   -2.4190   -3.6880 o         1 MOL     -0.747220
     45 O8          3.2510   -1.9340   -2.2810 o         1 MOL     -0.747220
     46 H19         3.3630   -3.3560   -0.2070 hn        1 MOL      0.271990
     47 H20         4.2970   -5.7100   -1.9010 h1        1 MOL      0.104848
     48 H21         2.1120   -4.6590   -2.6160 hc        1 MOL      0.003350
     49 H22         3.3760   -4.5760   -3.8660 hc        1 MOL      0.003350
     50 N4          5.9950   -3.2200   -1.1600 n         1 MOL      0.012672
     51 C17         7.3360   -2.5510   -1.1260 c3        1 MOL     -0.483785
     52 C18         7.3840   -1.1640   -1.8950 c         1 MOL      0.747630
     53 O9          7.8510   -1.1680   -3.0570 o         1 MOL     -0.588762
     54 H23         5.3910   -3.1120   -0.3570 hn        1 MOL      0.130324
     55 H24         7.9570   -3.2320   -1.7070 h1        1 MOL      0.144607
     56 H25         7.6820   -2.4320   -0.1000 h1        1 MOL      0.144607
     57 N5          6.9710   -0.1170   -1.2900 n         1 MOL     -0.463296
     58 C19         7.2950    1.2830   -1.7430 c3        1 MOL      0.057861
     59 C20         7.3300    2.3710   -0.5680 c         1 MOL      0.484379
     60 O10         7.8140    3.4870   -0.7860 o         1 MOL     -0.536952
     61 C21         6.3010    1.7150   -2.8470 c3        1 MOL     -0.034799
     62 C22         4.8250    1.5040   -2.4570 c         1 MOL      0.692251
     63 O11         4.4290    1.7570   -1.3210 o         1 MOL     -0.706223
     64 O12         4.0170    0.9950   -3.2710 o         1 MOL     -0.706223
     65 H26         6.5430   -0.2540   -0.3860 hn        1 MOL      0.198416
     66 H27         8.3030    1.2600   -2.1630 h1        1 MOL      0.039289
     67 H28         6.5370    1.0500   -3.6710 hc        1 MOL      0.013192
     68 H29         6.5150    2.7430   -3.1710 hc        1 MOL      0.013192
     69 N6          6.8790    1.9890    0.6770 n         1 MOL     -0.342570
     70 C23         6.7680    3.0160    1.6870 c3        1 MOL     -0.030568
     71 C24         5.5820    3.9760    1.4080 c         1 MOL      0.479111
     72 O13         5.5100    5.0200    2.0800 o         1 MOL     -0.612306
     73 H30         6.5510    1.0400    0.8030 hn        1 MOL      0.236728
     74 H31         7.6630    3.6280    1.7730 h1        1 MOL      0.059333
     75 H32         6.6010    2.5740    2.6640 h1        1 MOL      0.059333
     76 N7          4.5150    3.5290    0.7450 n         1 MOL     -0.197929
     77 C25         3.1770    4.1630    0.9210 c3        1 MOL     -0.049526
     78 C26         1.9930    3.2120    1.0480 c         1 MOL      0.534601
     79 O14         2.0640    2.0890    0.5430 o         1 MOL     -0.694550
     80 C27         2.9770    5.0450   -0.3320 c3        1 MOL      0.013419
     81 C28         3.9100    6.2260   -0.4050 c3        1 MOL     -0.401506
     82 C29         3.3730    7.1760   -1.4030 c         1 MOL      0.766037
     83 N8          3.9140    8.3620   -1.4930 n         1 MOL     -0.839940
     84 O15         2.4410    6.9310   -2.1590 o         1 MOL     -0.591095
     85 H33         4.7060    2.7780    0.0940 hn        1 MOL      0.175355
     86 H34         3.1330    4.7180    1.8630 h1        1 MOL      0.062325
     87 H35         1.9400    5.3930   -0.2860 hc        1 MOL      0.063179
     88 H36         3.0810    4.4090   -1.2100 hc        1 MOL      0.063179
     89 H37         4.9100    5.9100   -0.6950 hc        1 MOL      0.119944
     90 H38         3.9380    6.6520    0.6060 hc        1 MOL      0.119944
     91 H39         4.6840    8.4950   -0.8540 hn        1 MOL      0.362791
     92 H40         3.5050    9.0250   -2.1320 hn        1 MOL      0.362791
     93 N9          0.9200    3.6570    1.7310 n         1 MOL     -0.258445
     94 C30        -0.2690    2.9480    2.0580 c3        1 MOL      0.034128
     95 C31        -1.3570    3.3890    1.0970 c         1 MOL      0.358163
     96 O16        -1.8050    4.5300    1.2290 o         1 MOL     -0.566428
     97 C32        -0.7220    3.0070    3.5740 c3        1 MOL      0.146514
     98 C33        -1.8760    2.0040    3.8780 c3        1 MOL     -0.341697
     99 C34         0.3960    2.6550    4.6090 c3        1 MOL     -0.341697
    100 H41         1.0780    4.5590    2.1680 hn        1 MOL      0.206366
    101 H42        -0.0550    1.8850    1.9720 h1        1 MOL      0.133230
    102 H43        -1.0630    4.0200    3.7650 hc        1 MOL      0.000949
    103 H44        -2.0130    1.8920    4.9500 hc        1 MOL      0.082411
    104 H45        -2.7300    2.1890    3.2160 hc        1 MOL      0.082411
    105 H46        -1.4780    1.0110    3.6670 hc        1 MOL      0.082411
    106 H47         0.8100    1.6490    4.5800 hc        1 MOL      0.082411
    107 H48         1.3230    3.1770    4.3850 hc        1 MOL      0.082411
    108 H49         0.0370    2.9610    5.5900 hc        1 MOL      0.082411
    109 N10        -1.7470    2.5320    0.1950 n         1 MOL     -0.190348
    110 C35        -2.9090    2.6890   -0.7440 c3        1 MOL      0.109976
    111 C36        -4.1590    1.9920   -0.1900 c         1 MOL      0.353493
    112 O17        -4.1540    1.2820    0.7630 o         1 MOL     -0.245543
    113 C37        -2.5110    2.3890   -2.1490 c3        1 MOL     -0.281491
    114 C38        -2.8430    1.0170   -2.7240 c         1 MOL      0.392146
    115 N11        -2.1960    0.0140   -2.2740 n         1 MOL     -0.084408
    116 O18        -3.7010    0.8150   -3.5250 o         1 MOL     -0.520275
    117 H50        -1.3070    1.6240    0.2360 hn        1 MOL      0.293613
    118 H51        -3.1420    3.7520   -0.6710 h1        1 MOL      0.049015
    119 H52        -1.4590    2.5910   -2.3460 hc        1 MOL      0.092596
    120 H53        -3.1710    2.9750   -2.7940 hc        1 MOL      0.092596
    121 H54        -1.4330    0.0700   -1.6180 hn        1 MOL      0.178806
    122 H55        -2.2030   -0.8050   -2.8590 hn        1 MOL      0.178806
    123 N12        -5.2980    2.2230   -0.8420 n         1 MOL     -0.453950
    124 C39        -6.6260    1.8700   -0.3420 c3        1 MOL      0.043248
    125 C40        -6.7230    0.3140   -0.2970 c         1 MOL      0.772261
    126 O19        -7.3580   -0.2300    0.5940 o         1 MOL     -0.581353
    127 C41        -7.7290    2.4130   -1.2740 c3        1 MOL     -0.163050
    128 C42        -9.1290    1.9480   -0.8650 ca        1 MOL     -0.129872
    129 C43        -9.8060    2.7130    0.0820 ca        1 MOL      0.014887
    130 C44        -9.7920    0.7950   -1.3820 ca        1 MOL      0.014887
    131 C45       -11.1100    2.4250    0.4920 ca        1 MOL     -0.415603
    132 C46       -11.1050    0.4660   -0.9440 ca        1 MOL     -0.415603
    133 C47       -11.7540    1.2120    0.0580 ca        1 MOL      0.478673
    134 O20       -12.9280    0.8480    0.6040 oh        1 MOL     -0.536695
    135 H56        -5.2460    2.8290   -1.6490 hn        1 MOL      0.295210
    136 H57        -6.7970    2.1830    0.6980 h1        1 MOL      0.071556
    137 H58        -7.5200    2.0870   -2.2990 hc        1 MOL      0.087685
    138 H59        -7.7230    3.5020   -1.3630 hc        1 MOL      0.087685
    139 H60        -9.3490    3.6000    0.4830 ha        1 MOL      0.101184
    140 H61        -9.2270    0.1370   -2.0380 ha        1 MOL      0.101184
    141 H62       -11.6400    2.8830    1.3100 ha        1 MOL      0.165824
    142 H63       -11.5610   -0.4110   -1.3930 ha        1 MOL      0.165824
    143 H64       -13.2410    0.0410    0.1840 ho        1 MOL      0.382147
    144 N13        -5.9310   -0.3790   -1.1610 n         1 MOL     -0.485624
    145 C48        -5.8590   -1.8410   -1.3370 c3        1 MOL      0.031222
    146 C49        -5.1750   -2.5160   -0.0920 c         1 MOL      0.402176
    147 O21        -5.5260   -3.6350    0.1940 o         1 MOL     -0.541110
    148 C50        -5.0740   -2.1250   -2.6790 c3        1 MOL      0.200482
    149 C51        -5.8480   -1.8250   -4.0120 c3        1 MOL     -0.396632
    150 C52        -5.1520   -2.5050   -5.1740 c         1 MOL      0.741916
    151 O22        -5.7300   -2.9650   -6.1800 o         1 MOL     -0.729540
    152 O23        -3.8880   -2.5070   -5.2200 o         1 MOL     -0.729540
    153 H65        -5.4390    0.1400   -1.8720 hn        1 MOL      0.197737
    154 H66        -6.7830   -2.3900   -1.4770 h1        1 MOL      0.064831
    155 H67        -4.9070   -3.1770   -2.4790 hc        1 MOL     -0.024722
    156 H68        -4.1170   -1.6170   -2.6260 hc        1 MOL     -0.024722
    157 H69        -5.9120   -0.7380   -4.0770 hc        1 MOL      0.071921
    158 H70        -6.8700   -2.1640   -3.8710 hc        1 MOL      0.071921
    159 N14        -4.3610   -1.7120    0.5550 n         1 MOL      0.116799
    160 C53        -3.6360   -1.9020    1.7850 c3        1 MOL     -0.100881
    161 C54        -4.2570   -1.3270    3.0680 c         1 MOL      0.423951
    162 O24        -4.2000   -1.8910    4.1480 o         1 MOL     -0.553077
    163 C55        -2.2470   -1.3220    1.6170 c3        1 MOL      0.074451
    164 C56        -1.3590   -1.9920    0.6000 c3        1 MOL      0.228212
    165 C57        -0.1110   -1.1940    0.1720 c         1 MOL      0.415656
    166 O25         1.0120   -1.7490    0.2630 o         1 MOL     -0.677464
    167 O26        -0.1840   -0.0310   -0.3120 o         1 MOL     -0.677464
    168 H71        -4.2430   -0.7960    0.1350 hn        1 MOL     -0.321594
    169 H72        -3.5670   -2.9820    1.9140 h1        1 MOL      0.077197
    170 H73        -1.6630   -1.2630    2.5380 hc        1 MOL      0.016565
    171 H74        -2.3460   -0.2710    1.3430 hc        1 MOL      0.016565
    172 H75        -1.9240   -2.4010   -0.2360 hc        1 MOL     -0.042502
    173 H76        -0.9940   -2.9070    1.0770 hc        1 MOL     -0.042502
    174 N15        -5.0410   -0.2540    2.9400 n         1 MOL     -0.088201
    175 C58        -5.8370    0.3610    4.0670 c3        1 MOL     -0.132559
    176 H77        -5.2890    1.2100    4.4780 h1        1 MOL      0.061353
    177 H78        -6.8020    0.7010    3.6890 h1        1 MOL      0.061353
    178 H79        -5.9940   -0.3810    4.8490 h1        1 MOL      0.061353
    179 H80        -5.1050    0.1860    2.0340 hn        1 MOL      0.085185
    180 Ca1         2.3640    0.1250   -1.1840 Ca        1 MOL      1.776675
    181 O27         0.7200    0.0420   -3.4680 oh        1 MOL     -0.858849
    182 H81         1.0000   -0.8670   -3.5880 ho        1 MOL      0.400535
    183 H82        -0.2140    0.0260   -3.6930 ho        1 MOL      0.400535
    184 O28         1.1500    2.4320   -2.0900 oh        1 MOL     -0.858849
    185 H83         0.8220    1.9040   -2.8270 ho        1 MOL      0.400535
    186 H84         1.7820    3.0360   -2.4930 ho        1 MOL      0.400535
@<TRIPOS>BOND
     1    1    2 1   
     2    1    4 1   
     3    1    5 1   
     4    1    6 1   
     5    2    3 2   
     6    2    7 1   
     7    7    8 1   
     8    7   15 1   
     9    8    9 1   
    10    8   11 1   
    11    8   16 1   
    12    9   10 2   
    13    9   19 1   
    14   11   12 1   
    15   11   17 1   
    16   11   18 1   
    17   12   13 1   
    18   12   14 1   
    19   19   20 1   
    20   19   27 1   
    21   20   21 1   
    22   20   23 1   
    23   20   28 1   
    24   21   22 2   
    25   21   38 1   
    26   23   24 1   
    27   23   25 1   
    28   23   29 1   
    29   24   26 1   
    30   24   30 1   
    31   24   31 1   
    32   25   32 1   
    33   25   33 1   
    34   25   34 1   
    35   26   35 1   
    36   26   36 1   
    37   26   37 1   
    38   38   39 1   
    39   38   46 1   
    40   39   40 1   
    41   39   42 1   
    42   39   47 1   
    43   40   41 2   
    44   40   50 1   
    45   42   43 1   
    46   42   48 1   
    47   42   49 1   
    48   43   44 1   
    49   43   45 1   
    50   50   51 1   
    51   50   54 1   
    52   51   52 1   
    53   51   55 1   
    54   51   56 1   
    55   52   53 2   
    56   52   57 1   
    57   57   58 1   
    58   57   65 1   
    59   58   59 1   
    60   58   61 1   
    61   58   66 1   
    62   59   60 2   
    63   59   69 1   
    64   61   62 1   
    65   61   67 1   
    66   61   68 1   
    67   62   63 1   
    68   62   64 1   
    69   69   70 1   
    70   69   73 1   
    71   70   71 1   
    72   70   74 1   
    73   70   75 1   
    74   71   72 2   
    75   71   76 1   
    76   76   77 1   
    77   76   85 1   
    78   77   78 1   
    79   77   80 1   
    80   77   86 1   
    81   78   79 2   
    82   78   93 1   
    83   80   81 1   
    84   80   87 1   
    85   80   88 1   
    86   81   82 1   
    87   81   89 1   
    88   81   90 1   
    89   82   83 1   
    90   82   84 2   
    91   83   91 1   
    92   83   92 1   
    93   93   94 1   
    94   93  100 1   
    95   94   95 1   
    96   94   97 1   
    97   94  101 1   
    98   95   96 2   
    99   95  109 1   
   100   97   98 1   
   101   97   99 1   
   102   97  102 1   
   103   98  103 1   
   104   98  104 1   
   105   98  105 1   
   106   99  106 1   
   107   99  107 1   
   108   99  108 1   
   109  109  110 1   
   110  109  117 1   
   111  110  111 1   
   112  110  113 1   
   113  110  118 1   
   114  111  112 2   
   115  111  123 1   
   116  113  114 1   
   117  113  119 1   
   118  113  120 1   
   119  114  115 1   
   120  114  116 2   
   121  115  121 1   
   122  115  122 1   
   123  123  124 1   
   124  123  135 1   
   125  124  125 1   
   126  124  127 1   
   127  124  136 1   
   128  125  126 2   
   129  125  144 1   
   130  127  128 1   
   131  127  137 1   
   132  127  138 1   
   133  128  129 ar  
   134  128  130 ar  
   135  129  131 ar  
   136  129  139 1   
   137  130  132 ar  
   138  130  140 1   
   139  131  133 ar  
   140  131  141 1   
   141  132  133 ar  
   142  132  142 1   
   143  133  134 1   
   144  134  143 1   
   145  144  145 1   
   146  144  153 1   
   147  145  146 1   
   148  145  148 1   
   149  145  154 1   
   150  146  147 2   
   151  146  159 1   
   152  148  149 1   
   153  148  155 1   
   154  148  156 1   
   155  149  150 1   
   156  149  157 1   
   157  149  158 1   
   158  150  151 1   
   159  150  152 1   
   160  159  160 1   
   161  159  168 1   
   162  160  161 1   
   163  160  163 1   
   164  160  169 1   
   165  161  162 2   
   166  161  174 1   
   167  163  164 1   
   168  163  170 1   
   169  163  171 1   
   170  164  165 1   
   171  164  172 1   
   172  164  173 1   
   173  165  166 1   
   174  165  167 1   
   175  174  175 1   
   176  174  179 1   
   177  175  176 1   
   178  175  177 1   
   179  175  178 1   
   180  181  182 1   
   181  181  183 1   
   182  184  185 1   
   183  184  186 1   
@<TRIPOS>SUBSTRUCTURE
     1 MOL         1 TEMP              0 ****  ****    0 ROOT
