@<TRIPOS>MOLECULE
MOL
  175   173     1     0     0
SMALL
resp


@<TRIPOS>ATOM
      1 C1          0.4240    3.7990    5.3610 c3        1 MOL     -0.464008
      2 C2         -0.2550    4.0120    3.9750 c         1 MOL      0.744664
      3 O1          0.3120    4.4180    3.0490 o         1 MOL     -0.528835
      4 H1         -0.3400    3.7570    6.1380 hc        1 MOL      0.109207
      5 H2          0.9830    2.8630    5.3520 hc        1 MOL      0.109207
      6 H3          1.1040    4.6260    5.5650 hc        1 MOL      0.109207
      7 N1         -1.5580    3.6940    3.9190 n         1 MOL     -0.668189
      8 C3         -2.3110    3.4900    2.7220 c3        1 MOL      0.133491
      9 C4         -2.6640    4.7630    1.8850 c         1 MOL      0.677984
     10 O2         -3.0390    5.8150    2.4020 o         1 MOL     -0.593628
     11 C5         -3.6520    2.7260    2.9820 c3        1 MOL     -0.490627
     12 C6         -4.2200    2.1200    1.7000 c         1 MOL      0.836567
     13 O3         -5.4270    1.7780    1.7720 o         1 MOL     -0.700236
     14 O4         -3.6330    1.9840    0.6820 o         1 MOL     -0.700236
     15 H4         -1.9950    3.5790    4.8320 hn        1 MOL      0.334562
     16 H5         -1.6930    2.8350    2.0870 h1        1 MOL      0.137505
     17 H6         -4.3290    3.4830    3.3910 hc        1 MOL      0.115708
     18 H7         -3.3840    1.9350    3.6840 hc        1 MOL      0.115708
     19 N2         -2.5780    4.5520    0.5680 n         1 MOL     -0.605942
     20 C7         -2.8700    5.5750   -0.4490 c3        1 MOL      0.306683
     21 C8         -3.9460    5.1470   -1.4380 c         1 MOL      0.576094
     22 O5         -4.5780    5.9630   -2.0690 o         1 MOL     -0.587564
     23 C9         -1.5490    5.9830   -1.1110 c3        1 MOL     -0.271829
     24 H8         -2.4900    3.6000    0.2370 hn        1 MOL      0.324285
     25 H9         -3.3300    6.4780   -0.0350 h1        1 MOL     -0.006011
     26 H10        -1.2070    5.0940   -1.6440 hc        1 MOL      0.066361
     27 H11        -1.6510    6.7340   -1.8900 hc        1 MOL      0.066361
     28 H12        -0.8060    6.2340   -0.3530 hc        1 MOL      0.066361
     29 N3         -4.2920    3.8410   -1.4910 n         1 MOL     -0.509571
     30 C10        -5.0030    3.2330   -2.6390 c3        1 MOL      0.066723
     31 C11        -6.0150    2.1320   -2.3860 c         1 MOL      0.406782
     32 O6         -6.6260    1.5600   -3.2790 o         1 MOL     -0.533898
     33 C12        -4.0080    2.6650   -3.7250 c3        1 MOL     -0.000942
     34 C13        -3.1470    1.5120   -3.2770 c         1 MOL      0.687021
     35 O7         -3.4060    0.8950   -2.2520 o         1 MOL     -0.701620
     36 O8         -2.1870    1.2060   -4.0210 o         1 MOL     -0.701620
     37 H13        -3.9160    3.1780   -0.8340 hn        1 MOL      0.251687
     38 H14        -5.6040    4.0410   -3.0470 h1        1 MOL      0.078568
     39 H15        -3.4240    3.5080   -4.1000 hc        1 MOL     -0.008410
     40 H16        -4.6370    2.4080   -4.5750 hc        1 MOL     -0.008410
     41 N4         -6.2640    1.7640   -1.1000 n         1 MOL     -0.205055
     42 C14        -7.3860    0.8730   -0.6910 c3        1 MOL     -0.415956
     43 C15        -7.3580   -0.5780   -1.0380 c         1 MOL      0.538239
     44 O9         -8.3890   -1.2890   -0.8780 o         1 MOL     -0.599762
     45 H17        -5.6610    2.0640   -0.3450 hn        1 MOL      0.205635
     46 H18        -8.2920    1.1870   -1.2110 h1        1 MOL      0.168593
     47 H19        -7.4300    1.0360    0.3910 h1        1 MOL      0.168593
     48 N5         -6.2210   -1.0840   -1.5630 n         1 MOL     -0.097338
     49 C16        -6.0140   -2.3900   -2.1640 c3        1 MOL     -0.112981
     50 C17        -5.9150   -3.5460   -1.1840 c         1 MOL      0.551075
     51 O10        -5.9520   -4.7250   -1.5940 o         1 MOL     -0.562648
     52 C18        -4.8270   -2.4270   -3.1330 c3        1 MOL     -0.166016
     53 C19        -3.5100   -2.4980   -2.4540 c         1 MOL      0.480288
     54 N6         -2.4770   -2.7040   -3.2430 n         1 MOL     -0.586209
     55 O11        -3.3720   -2.3130   -1.2580 o         1 MOL     -0.456751
     56 H20        -5.3910   -0.5480   -1.3300 hn        1 MOL      0.171488
     57 H21        -6.9450   -2.6170   -2.7010 h1        1 MOL      0.104911
     58 H22        -4.9600   -1.5810   -3.8070 hc        1 MOL      0.074491
     59 H23        -4.8150   -3.3600   -3.6880 hc        1 MOL      0.074491
     60 H24        -2.6450   -2.9900   -4.2060 hn        1 MOL      0.328889
     61 H25        -1.5570   -2.5850   -2.8480 hn        1 MOL      0.328889
     62 N7         -6.0070   -3.2870    0.1280 n         1 MOL     -0.347977
     63 C20        -5.8930   -4.3420    1.1580 c3        1 MOL     -0.079942
     64 C21        -4.5800   -4.7150    1.8370 c         1 MOL      0.489352
     65 O12        -4.5860   -5.3980    2.8490 o         1 MOL     -0.570765
     66 H26        -6.0450   -2.3530    0.5260 hn        1 MOL      0.239741
     67 H27        -6.2600   -5.3010    0.7920 h1        1 MOL      0.078332
     68 H28        -6.5830   -4.0790    1.9560 h1        1 MOL      0.078332
     69 N8         -3.4610   -4.1840    1.3140 n         1 MOL     -0.109108
     70 C22        -2.0870   -4.5940    1.5910 c3        1 MOL     -0.352269
     71 C23        -1.1870   -3.3670    1.7920 c         1 MOL      0.742451
     72 O13        -1.3880   -2.3500    1.1440 o         1 MOL     -0.654131
     73 C24        -1.4500   -5.4310    0.5040 c3        1 MOL      0.588937
     74 C25        -2.2390   -6.7380    0.4180 c3        1 MOL     -0.576767
     75 O14        -1.5280   -4.8470   -0.7450 oh        1 MOL     -0.589612
     76 H29        -3.5990   -3.4360    0.6540 hn        1 MOL      0.083779
     77 H30        -2.1530   -5.2060    2.5030 h1        1 MOL      0.121307
     78 H31        -0.4150   -5.7020    0.6950 h1        1 MOL     -0.036157
     79 H32        -1.5630   -3.8910   -0.6600 ho        1 MOL      0.342100
     80 H33        -2.3620   -7.2760    1.3630 hc        1 MOL      0.142880
     81 H34        -3.1800   -6.5360   -0.1070 hc        1 MOL      0.142880
     82 H35        -1.7390   -7.3800   -0.2980 hc        1 MOL      0.142880
     83 N9         -0.1310   -3.5450    2.5600 n         1 MOL     -0.739406
     84 C26         1.0570   -2.6330    2.3730 c3        1 MOL      0.043627
     85 C27         1.7660   -2.9600    1.0480 c         1 MOL      0.461687
     86 O15         2.2750   -4.0550    0.8900 o         1 MOL     -0.570298
     87 C28         2.0520   -2.5640    3.5770 c3        1 MOL      0.291117
     88 C29         1.2300   -2.2980    4.8130 c3        1 MOL      0.020011
     89 C30         3.0380   -1.4880    3.3140 c3        1 MOL     -0.193036
     90 C31         2.0630   -2.0490    6.1430 c3        1 MOL     -0.273677
     91 H36         0.0640   -4.4540    2.9780 hn        1 MOL      0.348781
     92 H37         0.6890   -1.6090    2.3030 h1        1 MOL      0.093924
     93 H38         2.6290   -3.4880    3.6000 hc        1 MOL     -0.044589
     94 H39         0.7510   -3.2340    5.0640 hc        1 MOL      0.007814
     95 H40         0.5400   -1.4630    4.7280 hc        1 MOL      0.007814
     96 H41         3.6590   -1.3120    4.1910 hc        1 MOL      0.011746
     97 H42         3.6110   -1.7310    2.4190 hc        1 MOL      0.011746
     98 H43         2.5060   -0.5650    3.0570 hc        1 MOL      0.011746
     99 H44         1.3980   -1.9750    7.0150 hc        1 MOL      0.064824
    100 H45         2.8350   -2.8090    6.2360 hc        1 MOL      0.064824
    101 H46         2.5800   -1.0930    6.1030 hc        1 MOL      0.064824
    102 N10         1.8210   -1.9720    0.1630 n         1 MOL     -0.016634
    103 C32         2.6770   -1.8870   -1.0130 c3        1 MOL      0.033736
    104 C33         4.1000   -1.2570   -0.8410 c         1 MOL      0.273933
    105 O16         4.3690   -0.5780    0.0910 o         1 MOL     -0.189669
    106 C34         1.9470   -1.1710   -2.1790 c3        1 MOL     -0.070661
    107 C35         0.4740   -1.5540   -2.2730 c         1 MOL      0.579647
    108 O17         0.1810   -2.2270   -3.3030 o         1 MOL     -0.632670
    109 O18        -0.3720   -1.3050   -1.3660 o         1 MOL     -0.632670
    110 H47         1.2160   -1.1720    0.3390 hn        1 MOL      0.088017
    111 H48         2.8360   -2.9370   -1.2740 h1        1 MOL      0.030391
    112 H49         2.4370   -1.3300   -3.1300 hc        1 MOL      0.034780
    113 H50         2.0290   -0.1180   -1.9130 hc        1 MOL      0.034780
    114 N11         5.0530   -1.6460   -1.6400 n         1 MOL     -0.583581
    115 C36         6.4540   -1.3640   -1.3050 c3        1 MOL      0.478361
    116 C37         6.6800    0.1490   -1.2800 c         1 MOL      0.277081
    117 O19         7.2790    0.6370   -0.3350 o         1 MOL     -0.516615
    118 C38         7.5050   -2.1330   -2.1150 c3        1 MOL     -0.247527
    119 C39         8.9750   -1.8280   -1.7390 ca        1 MOL      0.169187
    120 C40         9.8830   -1.3010   -2.6780 ca        1 MOL     -0.205794
    121 C41         9.4560   -2.1340   -0.4980 ca        1 MOL     -0.205794
    122 C42        11.2200   -1.0610   -2.3610 ca        1 MOL     -0.081232
    123 C43        10.8300   -1.9090   -0.1690 ca        1 MOL     -0.081232
    124 C44        11.7050   -1.3920   -1.0800 ca        1 MOL     -0.122244
    125 H51         4.8740   -2.2570   -2.4230 hn        1 MOL      0.335893
    126 H52         6.6190   -1.7000   -0.2820 h1        1 MOL      0.014206
    127 H53         7.4250   -1.7580   -3.1350 hc        1 MOL      0.050129
    128 H54         7.1780   -3.1690   -2.0490 hc        1 MOL      0.050129
    129 H55         9.4550   -0.9760   -3.6150 ha        1 MOL      0.121060
    130 H56         8.8180   -2.6520    0.2030 ha        1 MOL      0.121060
    131 H57        11.8630   -0.6960   -3.1350 ha        1 MOL      0.103698
    132 H58        11.2130   -2.0400    0.8290 ha        1 MOL      0.103698
    133 H59        12.7520   -1.2460   -0.8390 ha        1 MOL      0.103008
    134 N12         6.1010    0.9610   -2.1410 n         1 MOL     -0.008541
    135 C45         6.0850    2.4150   -2.0320 c3        1 MOL     -0.033266
    136 C46         5.2940    2.9570   -0.7950 c         1 MOL      0.371076
    137 O20         5.4430    4.1200   -0.4370 o         1 MOL     -0.540859
    138 C47         5.5980    2.9640   -3.3300 c3        1 MOL     -0.009535
    139 C48         4.8860    1.8000   -4.0030 c3        1 MOL     -0.060749
    140 C49         5.7310    0.6740   -3.4920 c3        1 MOL      0.008588
    141 H60         7.0790    2.8520   -2.0020 h1        1 MOL      0.067699
    142 H61         4.9530    3.8200   -3.1170 hc        1 MOL      0.029344
    143 H62         6.4300    3.3010   -3.9480 hc        1 MOL      0.029344
    144 H63         3.8970    1.7330   -3.5360 hc        1 MOL      0.039420
    145 H64         4.9090    1.9390   -5.0840 hc        1 MOL      0.039420
    146 H65         5.1800   -0.2630   -3.5250 h1        1 MOL     -0.001019
    147 H66         6.6130    0.6020   -4.1390 h1        1 MOL     -0.001019
    148 N13         4.6280    2.1180   -0.0460 n         1 MOL     -0.090296
    149 C50         3.9440    2.4910    1.2040 c3        1 MOL     -0.010936
    150 C51         4.7580    2.0720    2.4550 c         1 MOL      0.421064
    151 O21         4.9740    2.7820    3.4320 o         1 MOL     -0.536174
    152 C52         2.5530    1.9580    1.2120 c3        1 MOL     -0.059924
    153 C53         1.5920    2.6590    0.2570 c3        1 MOL     -0.306354
    154 C54         0.2780    1.8530    0.3090 c         1 MOL      0.623440
    155 O22        -0.5720    2.1380   -0.5590 o         1 MOL     -0.710551
    156 O23         0.0090    0.9250    1.0590 o         1 MOL     -0.710551
    157 H67         4.4310    1.2140   -0.4410 hn        1 MOL      0.116611
    158 H68         3.8890    3.5680    1.3870 h1        1 MOL      0.085683
    159 H69         2.1240    1.9950    2.2170 hc        1 MOL      0.070698
    160 H70         2.6120    0.9220    0.8640 hc        1 MOL      0.070698
    161 H71         1.9700    2.7380   -0.7590 hc        1 MOL      0.120864
    162 H72         1.3320    3.6430    0.6670 hc        1 MOL      0.120864
    163 N14         5.4160    0.9030    2.2310 n         1 MOL     -0.064462
    164 C55         6.3900    0.4290    3.2280 c3        1 MOL     -0.289218
    165 H73         5.8620    0.0890    4.1190 h1        1 MOL      0.100240
    166 H74         6.9670   -0.3970    2.8110 h1        1 MOL      0.100240
    167 H75         7.0630    1.2440    3.4950 h1        1 MOL      0.100240
    168 H76         5.1890    0.3340    1.4280 hn        1 MOL      0.042680
    169 Ca1        -2.1940   -0.0140   -0.1230 Ca        1 MOL      1.651688
    170 O24        -4.8350   -0.6960    1.2150 oh        1 MOL     -0.712397
    171 H77        -4.8450   -1.0130    2.1160 ho        1 MOL      0.360033
    172 H78        -5.0850    0.2360    1.2800 ho        1 MOL      0.360033
    173 O25        -2.0250    0.1200    2.6510 oh        1 MOL     -0.712397
    174 H79        -1.1110    0.3940    2.6230 ho        1 MOL      0.360033
    175 H80        -2.1750   -0.0920    3.5820 ho        1 MOL      0.360033
@<TRIPOS>BOND
     1    1    2 1   
     2    1    4 1   
     3    1    5 1   
     4    1    6 1   
     5    2    3 2   
     6    2    7 1   
     7    7    8 1   
     8    7   15 1   
     9    8    9 1   
    10    8   11 1   
    11    8   16 1   
    12    9   10 2   
    13    9   19 1   
    14   11   12 1   
    15   11   17 1   
    16   11   18 1   
    17   12   13 1   
    18   12   14 1   
    19   19   20 1   
    20   19   24 1   
    21   20   21 1   
    22   20   23 1   
    23   20   25 1   
    24   21   22 2   
    25   21   29 1   
    26   23   26 1   
    27   23   27 1   
    28   23   28 1   
    29   29   30 1   
    30   29   37 1   
    31   30   31 1   
    32   30   33 1   
    33   30   38 1   
    34   31   32 2   
    35   31   41 1   
    36   33   34 1   
    37   33   39 1   
    38   33   40 1   
    39   34   35 1   
    40   34   36 1   
    41   41   42 1   
    42   41   45 1   
    43   42   43 1   
    44   42   46 1   
    45   42   47 1   
    46   43   44 2   
    47   43   48 1   
    48   48   49 1   
    49   48   56 1   
    50   49   50 1   
    51   49   52 1   
    52   49   57 1   
    53   50   51 2   
    54   50   62 1   
    55   52   53 1   
    56   52   58 1   
    57   52   59 1   
    58   53   54 1   
    59   53   55 2   
    60   54   60 1   
    61   54   61 1   
    62   62   63 1   
    63   62   66 1   
    64   63   64 1   
    65   63   67 1   
    66   63   68 1   
    67   64   65 2   
    68   64   69 1   
    69   69   70 1   
    70   69   76 1   
    71   70   71 1   
    72   70   73 1   
    73   70   77 1   
    74   71   72 2   
    75   71   83 1   
    76   73   74 1   
    77   73   75 1   
    78   73   78 1   
    79   74   80 1   
    80   74   81 1   
    81   74   82 1   
    82   75   79 1   
    83   83   84 1   
    84   83   91 1   
    85   84   85 1   
    86   84   87 1   
    87   84   92 1   
    88   85   86 2   
    89   85  102 1   
    90   87   88 1   
    91   87   89 1   
    92   87   93 1   
    93   88   90 1   
    94   88   94 1   
    95   88   95 1   
    96   89   96 1   
    97   89   97 1   
    98   89   98 1   
    99   90   99 1   
   100   90  100 1   
   101   90  101 1   
   102  102  103 1   
   103  102  110 1   
   104  103  104 1   
   105  103  106 1   
   106  103  111 1   
   107  104  105 2   
   108  104  114 1   
   109  106  107 1   
   110  106  112 1   
   111  106  113 1   
   112  107  108 1   
   113  107  109 1   
   114  114  115 1   
   115  114  125 1   
   116  115  116 1   
   117  115  118 1   
   118  115  126 1   
   119  116  117 2   
   120  116  134 1   
   121  118  119 1   
   122  118  127 1   
   123  118  128 1   
   124  119  120 ar  
   125  119  121 ar  
   126  120  122 ar  
   127  120  129 1   
   128  121  123 ar  
   129  121  130 1   
   130  122  124 ar  
   131  122  131 1   
   132  123  124 ar  
   133  123  132 1   
   134  124  133 1   
   135  134  135 1   
   136  134  140 1   
   137  135  136 1   
   138  135  138 1   
   139  135  141 1   
   140  136  137 2   
   141  136  148 1   
   142  138  139 1   
   143  138  142 1   
   144  138  143 1   
   145  139  140 1   
   146  139  144 1   
   147  139  145 1   
   148  140  146 1   
   149  140  147 1   
   150  148  149 1   
   151  148  157 1   
   152  149  150 1   
   153  149  152 1   
   154  149  158 1   
   155  150  151 2   
   156  150  163 1   
   157  152  153 1   
   158  152  159 1   
   159  152  160 1   
   160  153  154 1   
   161  153  161 1   
   162  153  162 1   
   163  154  155 1   
   164  154  156 1   
   165  163  164 1   
   166  163  168 1   
   167  164  165 1   
   168  164  166 1   
   169  164  167 1   
   170  170  171 1   
   171  170  172 1   
   172  173  174 1   
   173  173  175 1   
@<TRIPOS>SUBSTRUCTURE
     1 MOL         1 TEMP              0 ****  ****    0 ROOT
