@<TRIPOS>MOLECULE
MOL
  179   176     1     0     0
SMALL
resp


@<TRIPOS>ATOM
      1 C1          2.2100    3.5860    4.4320 c3        1 MOL     -0.471195
      2 C2          1.4010    3.2710    3.1620 c         1 MOL      0.635753
      3 O1          1.9850    3.3710    2.0920 o         1 MOL     -0.505145
      4 H1          2.8810    4.4210    4.2350 hc        1 MOL      0.126805
      5 H2          1.5290    3.8490    5.2410 hc        1 MOL      0.126805
      6 H3          2.7940    2.7110    4.7180 hc        1 MOL      0.126805
      7 N1          0.0760    2.9990    3.2310 n         1 MOL     -0.547989
      8 C3         -0.7730    2.7870    2.0660 c3        1 MOL     -0.005770
      9 C4         -1.3180    4.0910    1.5730 c         1 MOL      0.549775
     10 O2         -2.4510    4.5920    1.7590 o         1 MOL     -0.493375
     11 C5         -1.9660    1.9380    2.5390 c3        1 MOL     -0.116429
     12 C6         -2.9150    1.4700    1.4220 c         1 MOL      0.811115
     13 O3         -4.1100    1.3520    1.6780 o         1 MOL     -0.759659
     14 O4         -2.4810    1.3570    0.2420 o         1 MOL     -0.759659
     15 H4         -0.4490    2.9450    4.0930 hn        1 MOL      0.338452
     16 H5         -0.2280    2.2610    1.2870 h1        1 MOL     -0.020572
     17 H6         -2.5660    2.4960    3.2420 hc        1 MOL      0.036896
     18 H7         -1.5490    1.0590    3.0250 hc        1 MOL      0.036896
     19 N2         -0.4410    4.7030    0.7780 n         1 MOL     -0.469231
     20 C7         -0.6610    6.0190    0.1830 c3        1 MOL     -0.036014
     21 C8         -1.7660    5.9980   -0.9440 c         1 MOL      0.445943
     22 O5         -2.4390    6.9900   -1.1680 o         1 MOL     -0.540860
     23 C9          0.6300    6.5000   -0.4120 c3        1 MOL     -0.257434
     24 C10         1.6650    6.7230    0.6870 c3        1 MOL      0.445549
     25 C11         2.8140    7.5840    0.1560 c3        1 MOL     -0.240572
     26 C12         4.0540    7.1710    1.0210 c3        1 MOL      0.126176
     27 N3          3.9700    7.6550    2.3880 n4        1 MOL     -0.402522
     28 H8          0.4660    4.2610    0.7660 hn        1 MOL      0.370470
     29 H9         -1.0610    6.7560    0.8850 h1        1 MOL      0.109401
     30 H10         0.4910    7.4520   -0.9350 hc        1 MOL      0.083954
     31 H11         0.9710    5.7040   -1.0630 hc        1 MOL      0.083954
     32 H12         2.0380    5.7920    1.1130 hc        1 MOL     -0.114537
     33 H13         1.2980    7.3160    1.5340 hc        1 MOL     -0.114537
     34 H14         2.5790    8.6420    0.1730 hc        1 MOL      0.080609
     35 H15         3.0730    7.2950   -0.8730 hc        1 MOL      0.080609
     36 H16         4.9170    7.6250    0.5250 hx        1 MOL      0.077054
     37 H17         4.3310    6.1110    0.9700 hx        1 MOL      0.077054
     38 H18         3.4410    7.0120    2.9640 hn        1 MOL      0.332115
     39 H19         4.8560    7.9050    2.8010 hn        1 MOL      0.332115
     40 H20         3.4170    8.4980    2.5320 hn        1 MOL      0.332115
     41 N4         -2.1090    4.8690   -1.5810 n         1 MOL     -0.201041
     42 C13        -3.2380    4.7250   -2.4550 c3        1 MOL     -0.038796
     43 C14        -4.5960    4.3180   -1.6940 c         1 MOL      0.426041
     44 O6         -5.6560    4.2970   -2.3150 o         1 MOL     -0.540400
     45 C15        -2.9530    3.7960   -3.6080 c3        1 MOL     -0.121912
     46 C16        -2.5070    2.4860   -3.1030 c         1 MOL      0.668129
     47 O7         -1.3820    2.3610   -2.5900 o         1 MOL     -0.747490
     48 O8         -3.2860    1.4930   -3.1370 o         1 MOL     -0.747490
     49 H21        -1.4640    4.0900   -1.5300 hn        1 MOL      0.213890
     50 H22        -3.4570    5.6850   -2.9300 h1        1 MOL      0.101025
     51 H23        -2.1670    4.2850   -4.1850 hc        1 MOL      0.051610
     52 H24        -3.8100    3.6820   -4.2700 hc        1 MOL      0.051610
     53 N5         -4.5410    3.9830   -0.4000 n         1 MOL     -0.025859
     54 C17        -5.7150    3.7970    0.4160 c3        1 MOL     -0.383368
     55 C18        -6.5320    2.4570    0.3010 c         1 MOL      0.682218
     56 O9         -7.4430    2.2900    1.1200 o         1 MOL     -0.575265
     57 H25        -3.6360    3.9150    0.0500 hn        1 MOL      0.131960
     58 H26        -6.4230    4.5860    0.1690 h1        1 MOL      0.149103
     59 H27        -5.4390    3.8910    1.4700 h1        1 MOL      0.149103
     60 N6         -6.1700    1.5900   -0.6810 n         1 MOL     -0.426063
     61 C19        -6.8450    0.3060   -0.8310 c3        1 MOL     -0.048736
     62 C20        -6.7860   -0.8050    0.2580 c         1 MOL      0.428894
     63 O10        -7.4530   -1.7890    0.0300 o         1 MOL     -0.540379
     64 C21        -6.4470   -0.2360   -2.2940 c3        1 MOL     -0.305979
     65 C22        -5.1990   -1.1210   -2.2190 c         1 MOL      0.810311
     66 N7         -5.1160   -1.9920   -3.2030 n         1 MOL     -0.844978
     67 O11        -4.2620   -1.0070   -1.4900 o         1 MOL     -0.656216
     68 H28        -5.2370    1.6820   -1.0640 hn        1 MOL      0.285812
     69 H29        -7.8840    0.6130   -0.8070 h1        1 MOL      0.134658
     70 H30        -6.0870    0.6760   -2.7690 hc        1 MOL      0.128961
     71 H31        -7.2530   -0.8010   -2.7810 hc        1 MOL      0.128961
     72 H32        -5.8570   -2.2050   -3.8500 hn        1 MOL      0.369041
     73 H33        -4.3920   -2.6970   -3.1740 hn        1 MOL      0.369041
     74 N8         -5.9720   -0.7630    1.3120 n         1 MOL     -0.178859
     75 C23        -5.9050   -1.8020    2.3630 c3        1 MOL     -0.351813
     76 C24        -4.8300   -2.8980    2.2420 c         1 MOL      0.575254
     77 O12        -4.8720   -3.8400    3.0420 o         1 MOL     -0.561704
     78 H34        -5.3580    0.0310    1.4420 hn        1 MOL      0.333867
     79 H35        -6.8320   -2.3650    2.3090 h1        1 MOL      0.156784
     80 H36        -5.8850   -1.3430    3.3530 h1        1 MOL      0.156784
     81 N9         -3.8790   -2.7730    1.3600 n         1 MOL     -0.313028
     82 C25        -2.6790   -3.6780    1.1840 c3        1 MOL     -0.023567
     83 C26        -1.4030   -2.8260    0.9350 c         1 MOL      0.643143
     84 O13        -1.4360   -1.7990    0.2810 o         1 MOL     -0.643717
     85 C27        -2.9650   -4.4420   -0.0260 c3        1 MOL      0.145323
     86 C28        -4.1960   -5.4090    0.0650 ca        1 MOL     -0.141971
     87 C29        -4.0000   -6.7450    0.5690 ca        1 MOL     -0.099615
     88 C30        -5.5060   -4.9930   -0.2220 ca        1 MOL     -0.099615
     89 C31        -5.1300   -7.6350    0.6740 ca        1 MOL     -0.259018
     90 C32        -6.5690   -5.8120    0.1260 ca        1 MOL     -0.259018
     91 C33        -6.4450   -7.1440    0.5650 ca        1 MOL      0.387090
     92 O14        -7.5320   -7.9830    0.6460 oh        1 MOL     -0.526306
     93 H37        -3.9790   -2.0260    0.6930 hn        1 MOL      0.180055
     94 H38        -2.5550   -4.3230    2.0510 h1        1 MOL      0.102216
     95 H39        -2.1490   -5.1010   -0.2920 hc        1 MOL     -0.008879
     96 H40        -2.9580   -3.7530   -0.8700 hc        1 MOL     -0.008879
     97 H41        -3.0160   -7.1770    0.7090 ha        1 MOL      0.123109
     98 H42        -5.7620   -3.9990   -0.5530 ha        1 MOL      0.123109
     99 H43        -5.0110   -8.6940    0.8620 ha        1 MOL      0.139342
    100 H44        -7.5430   -5.3760   -0.0210 ha        1 MOL      0.139342
    101 H45        -8.3390   -7.4860    0.4900 ho        1 MOL      0.380836
    102 N10        -0.2800   -3.2080    1.5350 n         1 MOL     -0.531573
    103 C34         1.0960   -2.6620    1.2890 c3        1 MOL      0.113949
    104 C35         2.1990   -3.6690    0.8580 c         1 MOL      0.521377
    105 O15         2.0660   -4.7980    1.2340 o         1 MOL     -0.527906
    106 C36         1.6220   -1.8830    2.5590 c3        1 MOL      0.085608
    107 C37         1.6670   -2.6030    3.9240 c3        1 MOL     -0.080841
    108 C38         0.8520   -0.5400    2.6920 c3        1 MOL     -0.557632
    109 C39         2.4340   -1.7520    5.0470 c3        1 MOL     -0.145187
    110 H46        -0.2950   -3.9640    2.1990 hn        1 MOL      0.272213
    111 H47         1.0250   -1.9700    0.4520 h1        1 MOL      0.053252
    112 H48         2.6730   -1.6550    2.3890 hc        1 MOL      0.007462
    113 H49         2.2440   -3.5170    3.8240 hc        1 MOL      0.050680
    114 H50         0.6800   -2.9420    4.2420 hc        1 MOL      0.050680
    115 H51         0.7590   -0.1140    1.6870 hc        1 MOL      0.184407
    116 H52        -0.1340   -0.7620    3.1140 hc        1 MOL      0.184407
    117 H53         1.4810    0.2220    3.1500 hc        1 MOL      0.184407
    118 H54         1.7380   -0.9690    5.3590 hc        1 MOL      0.042162
    119 H55         2.5900   -2.3570    5.9480 hc        1 MOL      0.042162
    120 H56         3.3460   -1.3040    4.6630 hc        1 MOL      0.042162
    121 N11         3.2090   -3.1830    0.0860 n         1 MOL     -0.324937
    122 C40         4.2960   -3.8940   -0.5410 c3        1 MOL      0.022297
    123 C41         5.7160   -3.5460   -0.0590 c         1 MOL      0.544280
    124 O16         5.8910   -2.4860    0.5640 o         1 MOL     -0.456614
    125 C42         4.1740   -3.9120   -2.0480 c3        1 MOL     -0.099950
    126 O17         4.7050   -2.7170   -2.5000 oh        1 MOL     -0.483468
    127 H57         3.1550   -2.2110   -0.1580 hn        1 MOL      0.213343
    128 H58         4.1430   -4.9420   -0.2790 h1        1 MOL      0.035773
    129 H59         3.1680   -3.9910   -2.4620 h1        1 MOL      0.110085
    130 H60         4.7400   -4.7130   -2.5120 h1        1 MOL      0.110085
    131 H61         4.0250   -2.0920   -2.2560 ho        1 MOL      0.392107
    132 N12         6.8390   -4.2180   -0.3620 n         1 MOL     -0.498712
    133 C43         8.1890   -3.7960   -0.0870 c3        1 MOL      0.136411
    134 C44         8.5740   -2.4770   -0.7630 c         1 MOL      0.382849
    135 O18         9.2070   -1.5890   -0.1870 o         1 MOL     -0.504011
    136 C45         9.2190   -4.8810   -0.2570 c3        1 MOL     -0.344748
    137 H62         6.6800   -4.9800   -1.0100 hn        1 MOL      0.293606
    138 H63         8.1510   -3.5810    0.9800 h1        1 MOL      0.122345
    139 H64         8.8120   -5.7770    0.2130 hc        1 MOL      0.106741
    140 H65         9.3340   -5.0670   -1.3250 hc        1 MOL      0.106741
    141 H66        10.1230   -4.6430    0.3120 hc        1 MOL      0.106741
    142 N13         8.0020   -2.1840   -1.9250 n         1 MOL     -0.223345
    143 C46         8.0890   -0.9720   -2.6980 c3        1 MOL     -0.063936
    144 C47         7.2380    0.1340   -2.0660 c         1 MOL      0.505685
    145 O19         7.6020    1.2910   -2.0610 o         1 MOL     -0.564675
    146 C48         7.6400   -1.2400   -4.1690 c3        1 MOL     -0.199187
    147 H67         7.6310   -2.9890   -2.4040 hn        1 MOL      0.275063
    148 H68         9.1160   -0.6140   -2.6000 h1        1 MOL      0.122212
    149 H69         6.6200   -1.6350   -4.1170 hc        1 MOL      0.065866
    150 H70         7.6190   -0.2890   -4.6900 hc        1 MOL      0.065866
    151 H71         8.2630   -1.9840   -4.6740 hc        1 MOL      0.065866
    152 N14         6.1920   -0.0950   -1.3150 n         1 MOL      0.026011
    153 C49         5.5140    0.7550   -0.4280 c3        1 MOL     -0.078293
    154 C50         6.3360    1.0700    0.8750 c         1 MOL      0.468741
    155 O20         6.3830    2.2220    1.3250 o         1 MOL     -0.570579
    156 C51         4.1560    0.1400    0.0050 c3        1 MOL      0.083038
    157 C52         3.1250    0.8620   -0.8460 c3        1 MOL     -0.212014
    158 C53         2.0890   -0.1930   -1.3230 c         1 MOL      0.769090
    159 O21         2.4370   -1.2300   -1.9870 o         1 MOL     -0.717250
    160 O22         0.8600   -0.0130   -1.0690 o         1 MOL     -0.717250
    161 H72         6.0610   -1.0900   -1.1630 hn        1 MOL     -0.202687
    162 H73         5.4320    1.7730   -0.7930 h1        1 MOL      0.095358
    163 H74         3.9840    0.3400    1.0640 hc        1 MOL      0.004322
    164 H75         4.2240   -0.9350   -0.0990 hc        1 MOL      0.004322
    165 H76         3.6380    1.3270   -1.6850 hc        1 MOL      0.046595
    166 H77         2.6780    1.6710   -0.2640 hc        1 MOL      0.046595
    167 N15         7.0980    0.1040    1.5240 n         1 MOL     -0.129685
    168 C54         7.9650    0.3790    2.6630 c3        1 MOL     -0.246013
    169 H78         8.6060    1.2310    2.4330 h1        1 MOL      0.099259
    170 H79         7.3560    0.6090    3.5360 h1        1 MOL      0.099259
    171 H80         8.5830   -0.4940    2.8690 h1        1 MOL      0.099259
    172 H81         6.9690   -0.8180    1.1420 hn        1 MOL      0.167421
    173 Ca1        -1.7210   -0.0710   -1.6680 Ca        1 MOL      1.743404
    174 O23        -1.5650   -2.4980   -2.7510 oh        1 MOL     -0.814645
    175 H82        -1.9580   -3.3230   -3.0310 ho        1 MOL      0.410159
    176 H83        -0.6450   -2.5720   -3.0330 ho        1 MOL      0.410159
    177 O24        -0.6120    0.1980   -4.2200 oh        1 MOL     -0.814645
    178 H84        -0.7930   -0.1620   -5.0880 ho        1 MOL      0.410159
    179 H85        -0.2390    1.0690   -4.3910 ho        1 MOL      0.410159
@<TRIPOS>BOND
     1    1    2 1   
     2    1    4 1   
     3    1    5 1   
     4    1    6 1   
     5    2    3 2   
     6    2    7 1   
     7    7    8 1   
     8    7   15 1   
     9    8    9 1   
    10    8   11 1   
    11    8   16 1   
    12    9   10 2   
    13    9   19 1   
    14   11   12 1   
    15   11   17 1   
    16   11   18 1   
    17   12   13 1   
    18   12   14 1   
    19   19   20 1   
    20   19   28 1   
    21   20   21 1   
    22   20   23 1   
    23   20   29 1   
    24   21   22 2   
    25   21   41 1   
    26   23   24 1   
    27   23   30 1   
    28   23   31 1   
    29   24   25 1   
    30   24   32 1   
    31   24   33 1   
    32   25   26 1   
    33   25   34 1   
    34   25   35 1   
    35   26   27 1   
    36   26   36 1   
    37   26   37 1   
    38   27   38 1   
    39   27   39 1   
    40   27   40 1   
    41   41   42 1   
    42   41   49 1   
    43   42   43 1   
    44   42   45 1   
    45   42   50 1   
    46   43   44 2   
    47   43   53 1   
    48   45   46 1   
    49   45   51 1   
    50   45   52 1   
    51   46   47 1   
    52   46   48 1   
    53   53   54 1   
    54   53   57 1   
    55   54   55 1   
    56   54   58 1   
    57   54   59 1   
    58   55   56 2   
    59   55   60 1   
    60   60   61 1   
    61   60   68 1   
    62   61   62 1   
    63   61   64 1   
    64   61   69 1   
    65   62   63 2   
    66   62   74 1   
    67   64   65 1   
    68   64   70 1   
    69   64   71 1   
    70   65   66 1   
    71   65   67 2   
    72   66   72 1   
    73   66   73 1   
    74   74   75 1   
    75   74   78 1   
    76   75   76 1   
    77   75   79 1   
    78   75   80 1   
    79   76   77 2   
    80   76   81 1   
    81   81   82 1   
    82   81   93 1   
    83   82   83 1   
    84   82   85 1   
    85   82   94 1   
    86   83   84 2   
    87   83  102 1   
    88   85   86 1   
    89   85   95 1   
    90   85   96 1   
    91   86   87 ar  
    92   86   88 ar  
    93   87   89 ar  
    94   87   97 1   
    95   88   90 ar  
    96   88   98 1   
    97   89   91 ar  
    98   89   99 1   
    99   90   91 ar  
   100   90  100 1   
   101   91   92 1   
   102   92  101 1   
   103  102  103 1   
   104  102  110 1   
   105  103  104 1   
   106  103  106 1   
   107  103  111 1   
   108  104  105 2   
   109  104  121 1   
   110  106  107 1   
   111  106  108 1   
   112  106  112 1   
   113  107  109 1   
   114  107  113 1   
   115  107  114 1   
   116  108  115 1   
   117  108  116 1   
   118  108  117 1   
   119  109  118 1   
   120  109  119 1   
   121  109  120 1   
   122  121  122 1   
   123  121  127 1   
   124  122  123 1   
   125  122  125 1   
   126  122  128 1   
   127  123  124 2   
   128  123  132 1   
   129  125  126 1   
   130  125  129 1   
   131  125  130 1   
   132  126  131 1   
   133  132  133 1   
   134  132  137 1   
   135  133  134 1   
   136  133  136 1   
   137  133  138 1   
   138  134  135 2   
   139  134  142 1   
   140  136  139 1   
   141  136  140 1   
   142  136  141 1   
   143  142  143 1   
   144  142  147 1   
   145  143  144 1   
   146  143  146 1   
   147  143  148 1   
   148  144  145 2   
   149  144  152 1   
   150  146  149 1   
   151  146  150 1   
   152  146  151 1   
   153  152  153 1   
   154  152  161 1   
   155  153  154 1   
   156  153  156 1   
   157  153  162 1   
   158  154  155 2   
   159  154  167 1   
   160  156  157 1   
   161  156  163 1   
   162  156  164 1   
   163  157  158 1   
   164  157  165 1   
   165  157  166 1   
   166  158  159 1   
   167  158  160 1   
   168  167  168 1   
   169  167  172 1   
   170  168  169 1   
   171  168  170 1   
   172  168  171 1   
   173  174  175 1   
   174  174  176 1   
   175  177  178 1   
   176  177  179 1   
@<TRIPOS>SUBSTRUCTURE
     1 MOL         1 TEMP              0 ****  ****    0 ROOT
