@<TRIPOS>MOLECULE
MOL
  189   185     1     0     0
SMALL
resp


@<TRIPOS>ATOM
      1 C1         -0.8100    2.8590    5.8460 c3        1 MOL     -0.283127
      2 C2         -0.9730    2.3260    4.4160 c         1 MOL      0.737121
      3 O1         -0.0350    2.2840    3.6460 o         1 MOL     -0.630278
      4 H1         -0.7840    3.9490    5.8260 hc        1 MOL      0.069938
      5 H2         -1.6490    2.5270    6.4570 hc        1 MOL      0.069938
      6 H3          0.1210    2.4830    6.2710 hc        1 MOL      0.069938
      7 N1         -2.1380    1.8620    4.0260 n         1 MOL     -0.610256
      8 C3         -2.4240    1.7190    2.6130 c3        1 MOL      0.059079
      9 C4         -2.6720    3.1460    2.0280 c         1 MOL      0.541565
     10 O2         -3.2930    3.9960    2.7010 o         1 MOL     -0.579303
     11 C5         -3.6790    0.8540    2.4670 c3        1 MOL      0.001043
     12 C6         -4.3200    0.6720    1.1120 c         1 MOL      0.705084
     13 O3         -3.7370    1.0120    0.0120 o         1 MOL     -0.636860
     14 O4         -5.5350    0.3070    1.1940 o         1 MOL     -0.636860
     15 H4         -2.8170    1.7120    4.7580 hn        1 MOL      0.343197
     16 H5         -1.5570    1.2400    2.1550 h1        1 MOL     -0.011951
     17 H6         -4.4620    1.1800    3.1520 hc        1 MOL     -0.014076
     18 H7         -3.3410   -0.1580    2.7260 hc        1 MOL     -0.014076
     19 N2         -2.1990    3.3840    0.8300 n         1 MOL     -0.367176
     20 C7         -2.3400    4.6170   -0.0050 c3        1 MOL     -0.031866
     21 C8         -3.4070    4.5410   -1.1420 c         1 MOL      0.362215
     22 O5         -3.6740    5.5870   -1.8890 o         1 MOL     -0.559733
     23 C9         -1.0010    4.9850   -0.5240 c3        1 MOL     -0.008475
     24 C10        -0.0220    5.5540    0.4920 c3        1 MOL      0.002292
     25 C11         1.2200    6.2010   -0.1990 c3        1 MOL     -0.047327
     26 C12         2.3330    6.5630    0.7760 c3        1 MOL      0.048389
     27 N3          1.9920    7.5380    1.8380 n4        1 MOL     -0.372463
     28 H8         -1.7730    2.6260    0.3030 hn        1 MOL      0.327432
     29 H9         -2.6260    5.4220    0.6760 h1        1 MOL      0.058242
     30 H10        -1.1600    5.6980   -1.3360 hc        1 MOL      0.047268
     31 H11        -0.5580    4.0920   -0.9630 hc        1 MOL      0.047268
     32 H12         0.2780    4.8420    1.2620 hc        1 MOL      0.023116
     33 H13        -0.4330    6.3970    1.0360 hc        1 MOL      0.023116
     34 H14         0.9090    7.1270   -0.7000 hc        1 MOL      0.032947
     35 H15         1.5840    5.5150   -0.9680 hc        1 MOL      0.032947
     36 H16         3.1810    6.9020    0.1910 hx        1 MOL      0.073753
     37 H17         2.6420    5.6230    1.2470 hx        1 MOL      0.073753
     38 H18         1.5860    8.4080    1.5110 hn        1 MOL      0.331242
     39 H19         1.4960    7.0940    2.5900 hn        1 MOL      0.331242
     40 H20         2.8330    7.9090    2.2380 hn        1 MOL      0.331242
     41 N4         -3.9290    3.3820   -1.3900 n         1 MOL     -0.043378
     42 C13        -4.7990    3.1100   -2.5720 c3        1 MOL     -0.139878
     43 C14        -6.2020    2.7750   -2.1620 c         1 MOL      0.489144
     44 O6         -7.1250    3.0720   -2.9200 o         1 MOL     -0.531674
     45 C15        -4.1880    1.9690   -3.3760 c3        1 MOL      0.007069
     46 C16        -2.7180    2.1730   -3.5360 c         1 MOL      0.587628
     47 O7         -1.8840    1.4440   -3.0260 o         1 MOL     -0.606226
     48 O8         -2.4330    3.1620   -4.2090 o         1 MOL     -0.606226
     49 H21        -3.6780    2.5950   -0.8140 hn        1 MOL      0.104810
     50 H22        -4.8820    4.0240   -3.1640 h1        1 MOL      0.134539
     51 H23        -4.7000    1.7220   -4.3090 hc        1 MOL      0.034921
     52 H24        -4.3770    1.0550   -2.8160 hc        1 MOL      0.034921
     53 N5         -6.3500    2.2270   -0.9440 n         1 MOL     -0.365675
     54 C17        -7.6490    1.6480   -0.5160 c3        1 MOL     -0.054073
     55 C18        -7.8390    0.1710   -1.0020 c         1 MOL      0.509588
     56 O9         -8.9190   -0.3480   -0.9820 o         1 MOL     -0.613065
     57 H25        -5.5560    2.0570   -0.3410 hn        1 MOL      0.203538
     58 H26        -8.4690    2.2480   -0.9170 h1        1 MOL      0.092213
     59 H27        -7.8000    1.6950    0.5610 h1        1 MOL      0.092213
     60 N6         -6.8090   -0.5660   -1.4060 n         1 MOL     -0.146108
     61 C19        -6.8050   -1.9300   -1.9140 c3        1 MOL      0.007107
     62 C20        -6.7190   -2.9560   -0.6780 c         1 MOL      0.417623
     63 O10        -6.4470   -4.1320   -0.8960 o         1 MOL     -0.492459
     64 C21        -5.7890   -2.1870   -2.9580 c3        1 MOL     -0.347685
     65 C22        -4.4170   -1.7670   -2.5210 c         1 MOL      0.877887
     66 O11        -4.0500   -1.8900   -1.3020 o         1 MOL     -0.760372
     67 O12        -3.6770   -1.2290   -3.3370 o         1 MOL     -0.760372
     68 H28        -5.9540   -0.0290   -1.2850 hn        1 MOL      0.067926
     69 H29        -7.8140   -2.0560   -2.3070 h1        1 MOL      0.116189
     70 H30        -6.1970   -1.6440   -3.8080 hc        1 MOL      0.104291
     71 H31        -5.8080   -3.2650   -3.1120 hc        1 MOL      0.104291
     72 N7         -7.0480   -2.5660    0.5430 n         1 MOL     -0.345877
     73 C23        -6.6620   -3.2660    1.8280 c3        1 MOL     -0.093608
     74 C24        -5.2200   -3.7730    2.0510 c         1 MOL      0.499141
     75 O13        -5.0980   -4.7450    2.7980 o         1 MOL     -0.551354
     76 H32        -7.1900   -1.5800    0.6600 hn        1 MOL      0.294222
     77 H33        -7.4170   -4.0450    1.9090 h1        1 MOL      0.098773
     78 H34        -6.8310   -2.5210    2.6050 h1        1 MOL      0.098773
     79 N8         -4.1820   -3.3510    1.2400 n         1 MOL     -0.191487
     80 C25        -2.8530   -4.0390    1.1290 c3        1 MOL     -0.019680
     81 C26        -1.7230   -2.9880    1.1510 c         1 MOL      0.403604
     82 O14        -1.7790   -1.8020    0.8090 o         1 MOL     -0.501117
     83 C27        -2.7070   -5.0920   -0.0030 c3        1 MOL      0.330234
     84 C28        -3.5080   -6.3580    0.2610 c3        1 MOL     -0.379164
     85 O15        -3.1830   -4.5290   -1.2060 oh        1 MOL     -0.516629
     86 H35        -4.3930   -2.6050    0.5830 hn        1 MOL      0.137492
     87 H36        -2.7110   -4.5240    2.1000 h1        1 MOL      0.056596
     88 H37        -1.6380   -5.2840   -0.0850 h1        1 MOL      0.013708
     89 H38        -4.0450   -4.1980   -0.9440 ho        1 MOL      0.297500
     90 H39        -3.1300   -6.8480    1.1590 hc        1 MOL      0.105272
     91 H40        -4.5300   -6.0200    0.3540 hc        1 MOL      0.105272
     92 H41        -3.3430   -7.1120   -0.5160 hc        1 MOL      0.105272
     93 N9         -0.5900   -3.5480    1.5130 n         1 MOL     -0.272088
     94 C29         0.6550   -2.8170    1.7230 c3        1 MOL      0.045560
     95 C30         1.8420   -3.2960    0.7840 c         1 MOL      0.394349
     96 O16         2.2880   -4.4350    0.8970 o         1 MOL     -0.528036
     97 C31         1.0210   -2.9440    3.2090 c3        1 MOL      0.076415
     98 C32        -0.1790   -2.5980    4.2020 c3        1 MOL     -0.219947
     99 C33         2.3050   -2.2710    3.5840 c3        1 MOL     -0.084700
    100 C34        -0.8170   -1.1880    4.0300 c3        1 MOL      0.187753
    101 H42        -0.6370   -4.5440    1.6630 hn        1 MOL      0.240098
    102 H43         0.6010   -1.7560    1.4830 h1        1 MOL      0.080734
    103 H44         1.1250   -4.0230    3.3050 hc        1 MOL     -0.007924
    104 H45         0.2600   -2.6230    5.2000 hc        1 MOL      0.050354
    105 H46        -0.9980   -3.3050    4.1330 hc        1 MOL      0.050354
    106 H47         3.1430   -2.4320    2.9070 hc        1 MOL      0.011848
    107 H48         2.1000   -1.2040    3.6330 hc        1 MOL      0.011848
    108 H49         2.6610   -2.5950    4.5590 hc        1 MOL      0.011848
    109 H50        -1.3260   -0.9070    4.9620 hc        1 MOL     -0.037493
    110 H51        -0.1070   -0.4210    3.7230 hc        1 MOL     -0.037493
    111 H52        -1.5090   -1.3420    3.2090 hc        1 MOL     -0.037493
    112 N10         2.2970   -2.4310   -0.1220 n         1 MOL     -0.254460
    113 C35         3.6150   -2.6220   -0.9040 c3        1 MOL     -0.076114
    114 C36         4.8510   -2.4320   -0.1100 c         1 MOL      0.519670
    115 O17         4.7820   -1.7470    0.9010 o         1 MOL     -0.321683
    116 C37         3.5600   -1.6770   -2.1170 c3        1 MOL     -0.029671
    117 C38         2.5310   -2.1660   -3.1310 c3        1 MOL     -0.135943
    118 O18         3.3190   -0.3270   -1.9150 oh        1 MOL     -0.459077
    119 H53         1.7460   -1.5990   -0.2320 hn        1 MOL      0.243398
    120 H54         3.6620   -3.6610   -1.2150 h1        1 MOL      0.085354
    121 H55         4.5480   -1.7780   -2.5710 h1        1 MOL      0.046355
    122 H56         2.3600   -0.2760   -1.9910 ho        1 MOL      0.356373
    123 H57         1.5470   -2.2130   -2.6690 hc        1 MOL      0.064535
    124 H58         2.4320   -1.4480   -3.9460 hc        1 MOL      0.064535
    125 H59         2.7810   -3.0550   -3.7220 hc        1 MOL      0.064535
    126 N11         5.9830   -2.8400   -0.6380 n         1 MOL     -0.443144
    127 C39         7.2890   -2.5210    0.0080 c3        1 MOL     -0.055254
    128 C40         7.2770   -1.0320    0.2820 c         1 MOL      0.072154
    129 O19         7.6340   -0.7070    1.4230 o         1 MOL     -0.460164
    130 C41         8.5110   -2.9300   -0.8370 c3        1 MOL      0.324211
    131 C42         8.7880   -4.4240   -0.8420 c3        1 MOL     -0.517765
    132 O20         8.3570   -2.4530   -2.1520 oh        1 MOL     -0.600756
    133 H60         5.9480   -3.2910   -1.5330 hn        1 MOL      0.310851
    134 H61         7.3530   -2.9650    0.9950 h1        1 MOL      0.161404
    135 H62         9.4590   -2.4710   -0.5830 h1        1 MOL      0.030294
    136 H63         9.2210   -2.7130   -2.4770 ho        1 MOL      0.325316
    137 H64         9.7770   -4.6410   -1.2240 hc        1 MOL      0.156194
    138 H65         8.7640   -4.7500    0.1960 hc        1 MOL      0.156194
    139 H66         8.0110   -4.8310   -1.4920 hc        1 MOL      0.156194
    140 N12         6.9190   -0.1710   -0.6390 n         1 MOL      0.250541
    141 C43         6.9400    1.3090   -0.5050 c3        1 MOL     -0.049060
    142 C44         5.9480    1.8430    0.5040 c         1 MOL      0.339440
    143 O21         6.2560    2.8000    1.2080 o         1 MOL     -0.504542
    144 C45         6.6870    1.9930   -1.8290 c3        1 MOL     -0.197144
    145 C46         7.5460    1.4560   -2.9620 c3        1 MOL      0.013235
    146 C47         9.0670    1.4810   -2.6720 c3        1 MOL      0.216775
    147 C48         9.9460    1.0780   -3.8300 c3        1 MOL     -0.110930
    148 N13         9.9590   -0.3450   -4.2070 n4        1 MOL     -0.282379
    149 H67         6.7580   -0.5930   -1.5470 hn        1 MOL      0.143237
    150 H68         7.9180    1.5660   -0.0950 h1        1 MOL      0.064257
    151 H69         6.8000    3.0600   -1.6450 hc        1 MOL      0.104529
    152 H70         5.6430    1.9160   -2.1320 hc        1 MOL      0.104529
    153 H71         7.4700    2.1110   -3.8340 hc        1 MOL     -0.006299
    154 H72         7.2790    0.4280   -3.2040 hc        1 MOL     -0.006299
    155 H73         9.2100    0.7760   -1.8460 hc        1 MOL     -0.030592
    156 H74         9.3610    2.4730   -2.3240 hc        1 MOL     -0.030592
    157 H75        10.9670    1.4060   -3.6030 hx        1 MOL      0.109332
    158 H76         9.7480    1.6310   -4.7470 hx        1 MOL      0.109332
    159 H77         9.1140   -0.6840   -4.6470 hn        1 MOL      0.272458
    160 H78        10.6540   -0.5170   -4.9240 hn        1 MOL      0.272458
    161 H79        10.2680   -0.9130   -3.4270 hn        1 MOL      0.272458
    162 N14         4.7140    1.2600    0.5590 n         1 MOL     -0.122964
    163 C49         3.7660    1.7040    1.6700 c3        1 MOL     -0.215954
    164 C50         4.2130    1.2890    3.0650 c         1 MOL      0.510177
    165 O22         3.8780    2.0420    3.9610 o         1 MOL     -0.554270
    166 C51         2.3700    1.1360    1.4220 c3        1 MOL      0.097491
    167 C52         1.6530    1.8330    0.3230 c3        1 MOL     -0.145363
    168 C53         0.5560    0.9290   -0.1650 c         1 MOL      0.810596
    169 O23         0.7860   -0.1660   -0.7630 o         1 MOL     -0.791088
    170 O24        -0.6410    1.2980   -0.1970 o         1 MOL     -0.791088
    171 H80         4.5280    0.4260    0.0020 hn        1 MOL      0.004027
    172 H81         3.6180    2.7800    1.6450 h1        1 MOL      0.114425
    173 H82         1.7950    1.1230    2.3480 hc        1 MOL      0.082901
    174 H83         2.5890    0.0860    1.1860 hc        1 MOL      0.082901
    175 H84         2.3120    2.0370   -0.5270 hc        1 MOL      0.033509
    176 H85         1.1950    2.7210    0.7550 hc        1 MOL      0.033509
    177 N15         4.9920    0.2030    3.1450 n         1 MOL     -0.089922
    178 C54         5.6320   -0.1740    4.4360 c3        1 MOL     -0.283979
    179 H86         5.5880   -1.2560    4.5610 h1        1 MOL      0.108221
    180 H87         6.6740    0.1480    4.4350 h1        1 MOL      0.108221
    181 H88         5.1040    0.3070    5.2590 h1        1 MOL      0.108221
    182 H89         5.1410   -0.3360    2.3020 hn        1 MOL      0.158795
    183 Ca1        -1.9170   -0.4790   -1.3670 Ca        1 MOL      1.660572
    184 O25        -0.4160   -0.3470   -3.8170 oh        1 MOL     -0.799848
    185 H90        -0.7790    0.5360   -3.8250 ho        1 MOL      0.375327
    186 H91         0.0280   -0.4380   -4.6620 ho        1 MOL      0.375327
    187 O26        -1.0510   -2.8150   -2.0070 oh        1 MOL     -0.799848
    188 H92        -0.8930   -2.9290   -2.9430 ho        1 MOL      0.375327
    189 H93        -1.6160   -3.5390   -1.7730 ho        1 MOL      0.375327
@<TRIPOS>BOND
     1    1    2 1   
     2    1    4 1   
     3    1    5 1   
     4    1    6 1   
     5    2    3 2   
     6    2    7 1   
     7    7    8 1   
     8    7   15 1   
     9    8    9 1   
    10    8   11 1   
    11    8   16 1   
    12    9   10 2   
    13    9   19 1   
    14   11   12 1   
    15   11   17 1   
    16   11   18 1   
    17   12   13 1   
    18   12   14 1   
    19   19   20 1   
    20   19   28 1   
    21   20   21 1   
    22   20   23 1   
    23   20   29 1   
    24   21   22 2   
    25   21   41 1   
    26   23   24 1   
    27   23   30 1   
    28   23   31 1   
    29   24   25 1   
    30   24   32 1   
    31   24   33 1   
    32   25   26 1   
    33   25   34 1   
    34   25   35 1   
    35   26   27 1   
    36   26   36 1   
    37   26   37 1   
    38   27   38 1   
    39   27   39 1   
    40   27   40 1   
    41   41   42 1   
    42   41   49 1   
    43   42   43 1   
    44   42   45 1   
    45   42   50 1   
    46   43   44 2   
    47   43   53 1   
    48   45   46 1   
    49   45   51 1   
    50   45   52 1   
    51   46   47 1   
    52   46   48 1   
    53   53   54 1   
    54   53   57 1   
    55   54   55 1   
    56   54   58 1   
    57   54   59 1   
    58   55   56 2   
    59   55   60 1   
    60   60   61 1   
    61   60   68 1   
    62   61   62 1   
    63   61   64 1   
    64   61   69 1   
    65   62   63 2   
    66   62   72 1   
    67   64   65 1   
    68   64   70 1   
    69   64   71 1   
    70   65   66 1   
    71   65   67 1   
    72   72   73 1   
    73   72   76 1   
    74   73   74 1   
    75   73   77 1   
    76   73   78 1   
    77   74   75 2   
    78   74   79 1   
    79   79   80 1   
    80   79   86 1   
    81   80   81 1   
    82   80   83 1   
    83   80   87 1   
    84   81   82 2   
    85   81   93 1   
    86   83   84 1   
    87   83   85 1   
    88   83   88 1   
    89   84   90 1   
    90   84   91 1   
    91   84   92 1   
    92   85   89 1   
    93   93   94 1   
    94   93  101 1   
    95   94   95 1   
    96   94   97 1   
    97   94  102 1   
    98   95   96 2   
    99   95  112 1   
   100   97   98 1   
   101   97   99 1   
   102   97  103 1   
   103   98  100 1   
   104   98  104 1   
   105   98  105 1   
   106   99  106 1   
   107   99  107 1   
   108   99  108 1   
   109  100  109 1   
   110  100  110 1   
   111  100  111 1   
   112  112  113 1   
   113  112  119 1   
   114  113  114 1   
   115  113  116 1   
   116  113  120 1   
   117  114  115 2   
   118  114  126 1   
   119  116  117 1   
   120  116  118 1   
   121  116  121 1   
   122  117  123 1   
   123  117  124 1   
   124  117  125 1   
   125  118  122 1   
   126  126  127 1   
   127  126  133 1   
   128  127  128 1   
   129  127  130 1   
   130  127  134 1   
   131  128  129 2   
   132  128  140 1   
   133  130  131 1   
   134  130  132 1   
   135  130  135 1   
   136  131  137 1   
   137  131  138 1   
   138  131  139 1   
   139  132  136 1   
   140  140  141 1   
   141  140  149 1   
   142  141  142 1   
   143  141  144 1   
   144  141  150 1   
   145  142  143 2   
   146  142  162 1   
   147  144  145 1   
   148  144  151 1   
   149  144  152 1   
   150  145  146 1   
   151  145  153 1   
   152  145  154 1   
   153  146  147 1   
   154  146  155 1   
   155  146  156 1   
   156  147  148 1   
   157  147  157 1   
   158  147  158 1   
   159  148  159 1   
   160  148  160 1   
   161  148  161 1   
   162  162  163 1   
   163  162  171 1   
   164  163  164 1   
   165  163  166 1   
   166  163  172 1   
   167  164  165 2   
   168  164  177 1   
   169  166  167 1   
   170  166  173 1   
   171  166  174 1   
   172  167  168 1   
   173  167  175 1   
   174  167  176 1   
   175  168  169 1   
   176  168  170 1   
   177  177  178 1   
   178  177  182 1   
   179  178  179 1   
   180  178  180 1   
   181  178  181 1   
   182  184  185 1   
   183  184  186 1   
   184  187  188 1   
   185  187  189 1   
@<TRIPOS>SUBSTRUCTURE
     1 MOL         1 TEMP              0 ****  ****    0 ROOT
