@<TRIPOS>MOLECULE
MOL
  169   169     1     0     0
SMALL
resp


@<TRIPOS>ATOM
      1 C1          0.0860    3.3040    6.1610 c3        1 MOL     -0.384579
      2 C2         -0.2930    3.2430    4.6600 c         1 MOL      0.783677
      3 O1          0.4480    3.8340    3.8400 o         1 MOL     -0.634271
      4 H1          0.5650    2.3700    6.4520 hc        1 MOL      0.093916
      5 H2          0.7720    4.1330    6.3300 hc        1 MOL      0.093916
      6 H3         -0.8140    3.4500    6.7570 hc        1 MOL      0.093916
      7 N1         -1.2920    2.6170    4.1870 n         1 MOL     -0.613799
      8 C3         -1.6950    2.4750    2.7630 c3        1 MOL      0.095765
      9 C4         -2.2040    3.7810    2.1990 c         1 MOL      0.653176
     10 O2         -3.1100    4.4180    2.6390 o         1 MOL     -0.602957
     11 C5         -2.7270    1.2770    2.5470 c3        1 MOL     -0.119927
     12 C6         -3.3350    0.9860    1.1620 c         1 MOL      0.699130
     13 O3         -3.0210    1.7280    0.2120 o         1 MOL     -0.680117
     14 O4         -3.9700   -0.0450    0.8880 o         1 MOL     -0.680117
     15 H4         -1.8130    1.9570    4.7480 hn        1 MOL      0.300893
     16 H5         -0.8220    2.2380    2.1650 h1        1 MOL      0.063679
     17 H6         -3.5220    1.3980    3.2810 hc        1 MOL      0.026747
     18 H7         -2.3190    0.3110    2.8250 hc        1 MOL      0.026747
     19 N2         -1.6970    4.0740    0.9940 n         1 MOL     -0.562525
     20 C7         -1.9800    5.3160    0.1770 c3        1 MOL      0.314389
     21 C8         -2.8710    5.2280   -1.0020 c         1 MOL      0.251582
     22 O5         -3.1080    6.2680   -1.5950 o         1 MOL     -0.518283
     23 C9         -0.5960    5.8510   -0.2160 c3        1 MOL     -0.342539
     24 H8         -1.0810    3.4090    0.5540 hn        1 MOL      0.323640
     25 H9         -2.4800    6.0230    0.8460 h1        1 MOL      0.058462
     26 H10         0.2100    5.6160    0.4720 hc        1 MOL      0.089279
     27 H11        -0.2620    5.3470   -1.1280 hc        1 MOL      0.089279
     28 H12        -0.7990    6.9190   -0.3310 hc        1 MOL      0.089279
     29 N3         -3.2680    4.0000   -1.4560 n         1 MOL     -0.082589
     30 C10        -4.3330    3.8330   -2.4540 c3        1 MOL      0.034220
     31 C11        -5.6030    3.2870   -1.8730 c         1 MOL      0.520259
     32 O6         -6.6020    3.2390   -2.5440 o         1 MOL     -0.572936
     33 C12        -3.7880    2.9880   -3.6910 c3        1 MOL     -0.191134
     34 C13        -3.3040    1.6240   -3.2520 c         1 MOL      0.691206
     35 O7         -2.1800    1.1990   -3.4560 o         1 MOL     -0.669371
     36 O8         -4.0600    0.8890   -2.5590 o         1 MOL     -0.669371
     37 H13        -3.0630    3.1970   -0.8870 hn        1 MOL      0.071926
     38 H14        -4.6440    4.7890   -2.8870 h1        1 MOL      0.069717
     39 H15        -2.9780    3.5860   -4.1180 hc        1 MOL      0.045017
     40 H16        -4.6050    2.8270   -4.3980 hc        1 MOL      0.045017
     41 N4         -5.6280    2.9320   -0.6350 n         1 MOL     -0.412442
     42 C14        -6.7520    2.4030    0.0840 c3        1 MOL     -0.079147
     43 C15        -7.1900    0.9450   -0.3230 c         1 MOL      0.394506
     44 O9         -8.3290    0.5760    0.0580 o         1 MOL     -0.576281
     45 H17        -4.7100    2.6100   -0.3640 hn        1 MOL      0.279920
     46 H18        -7.5870    3.1180    0.0110 h1        1 MOL      0.098094
     47 H19        -6.4390    2.4270    1.1270 h1        1 MOL      0.098094
     48 N5         -6.3900    0.1300   -1.0890 n         1 MOL     -0.017476
     49 C16        -6.8830   -1.0980   -1.5850 c3        1 MOL     -0.072998
     50 C17        -6.8940   -2.1250   -0.4190 c         1 MOL      0.429472
     51 O10        -7.5890   -3.1180   -0.6560 o         1 MOL     -0.564550
     52 C18        -6.0690   -1.6520   -2.7360 c3        1 MOL     -0.177169
     53 C19        -4.7970   -2.4280   -2.4130 c         1 MOL      0.549297
     54 N6         -4.7510   -3.6820   -2.8020 n         1 MOL     -0.605250
     55 O11        -3.9690   -1.9940   -1.6570 o         1 MOL     -0.645983
     56 H20        -5.4840    0.3980   -1.4490 hn        1 MOL      0.111563
     57 H21        -7.8240   -1.0180   -2.1320 h1        1 MOL      0.115546
     58 H22        -5.9300   -0.8470   -3.4540 hc        1 MOL      0.066835
     59 H23        -6.6870   -2.3940   -3.2440 hc        1 MOL      0.066835
     60 H24        -5.3260   -3.8870   -3.6020 hn        1 MOL      0.317655
     61 H25        -3.9640   -4.1310   -2.3650 hn        1 MOL      0.317655
     62 N7         -6.2020   -1.8940    0.7160 n         1 MOL     -0.032310
     63 C20        -6.3070   -2.6800    1.9350 c3        1 MOL     -0.299168
     64 C21        -5.0760   -3.5820    2.0830 c         1 MOL      0.610809
     65 O12        -4.9890   -4.3870    3.0090 o         1 MOL     -0.572466
     66 H26        -5.5270   -1.1410    0.7360 hn        1 MOL      0.123169
     67 H27        -7.1960   -3.3070    1.8800 h1        1 MOL      0.123619
     68 H28        -6.3030   -2.0510    2.8290 h1        1 MOL      0.123619
     69 N8         -4.1230   -3.4270    1.1200 n         1 MOL     -0.393990
     70 C22        -2.9120   -4.2790    1.0540 c3        1 MOL     -0.110972
     71 C23        -1.6180   -3.4310    0.9140 c         1 MOL      0.623763
     72 O13        -1.5780   -2.4630    0.1300 o         1 MOL     -0.599304
     73 C24        -3.0640   -5.5020    0.2530 c3        1 MOL      0.432700
     74 C25        -4.2080   -6.3860    0.6700 c3        1 MOL     -0.437139
     75 O14        -3.1440   -5.2040   -1.0930 oh        1 MOL     -0.585231
     76 H29        -4.2770   -2.7600    0.3830 hn        1 MOL      0.316506
     77 H30        -2.6610   -4.7080    2.0270 h1        1 MOL      0.069304
     78 H31        -2.1640   -6.1190    0.2760 h1        1 MOL     -0.037907
     79 H32        -3.1030   -6.0470   -1.5500 ho        1 MOL      0.390269
     80 H33        -3.9290   -6.6250    1.6960 hc        1 MOL      0.109946
     81 H34        -5.1590   -5.8650    0.6980 hc        1 MOL      0.109946
     82 H35        -4.2880   -7.2650    0.0290 hc        1 MOL      0.109946
     83 N9         -0.4850   -3.6820    1.6080 n         1 MOL     -0.479785
     84 C26         0.6610   -2.7550    1.7080 c3        1 MOL     -0.064524
     85 C27         1.5110   -2.9650    0.4420 c         1 MOL      0.591924
     86 O15         2.1320   -4.0200    0.3560 o         1 MOL     -0.622432
     87 C28         1.5290   -2.9690    3.0090 c3        1 MOL      0.122123
     88 C29         0.6930   -2.8410    4.3130 c3        1 MOL      0.126460
     89 C30         2.8480   -2.1550    2.9270 c3        1 MOL     -0.055221
     90 C31         1.5630   -3.3950    5.5000 c3        1 MOL     -0.242262
     91 H36        -0.3960   -4.5400    2.1260 hn        1 MOL      0.277167
     92 H37         0.3500   -1.7100    1.7340 h1        1 MOL      0.070425
     93 H38         1.8080   -4.0260    2.9450 hc        1 MOL     -0.013853
     94 H39        -0.2410   -3.4040    4.2800 hc        1 MOL     -0.017367
     95 H40         0.4730   -1.7950    4.5440 hc        1 MOL     -0.017367
     96 H41         3.5630   -2.5150    2.1910 hc        1 MOL     -0.001000
     97 H42         2.6320   -1.1040    2.7120 hc        1 MOL     -0.001000
     98 H43         3.4270   -2.1860    3.8420 hc        1 MOL     -0.001000
     99 H44         0.9270   -3.5070    6.3770 hc        1 MOL      0.045081
    100 H45         1.9770   -4.3640    5.2110 hc        1 MOL      0.045081
    101 H46         2.3080   -2.6290    5.7220 hc        1 MOL      0.045081
    102 N10         1.6280   -1.9420   -0.3460 n         1 MOL     -0.085343
    103 C32         2.5780   -1.9980   -1.4840 c3        1 MOL     -0.116200
    104 C33         4.0210   -1.4250   -1.0370 c         1 MOL      0.363933
    105 O16         4.1210   -0.6950   -0.0400 o         1 MOL     -0.295041
    106 C34         1.9550   -1.2270   -2.6230 c3        1 MOL      0.030263
    107 C35         0.6460   -1.8100   -3.1520 c         1 MOL      0.715591
    108 O17        -0.4590   -1.4530   -2.7060 o         1 MOL     -0.723086
    109 O18         0.8120   -2.5360   -4.2050 o         1 MOL     -0.723086
    110 H47         1.0820   -1.1300   -0.1350 hn        1 MOL      0.033652
    111 H48         2.6580   -3.0320   -1.8280 h1        1 MOL      0.064435
    112 H49         2.6750   -1.2530   -3.4520 hc        1 MOL     -0.017188
    113 H50         1.8410   -0.1970   -2.2870 hc        1 MOL     -0.017188
    114 N11         5.0770   -1.6600   -1.8250 n         1 MOL     -0.461186
    115 C36         6.4570   -1.4480   -1.3650 c3        1 MOL      0.114605
    116 C37         6.6100    0.0540   -0.8680 c         1 MOL      0.467075
    117 O19         7.0880    0.2200    0.1970 o         1 MOL     -0.454895
    118 C38         7.5210   -1.8630   -2.3900 c3        1 MOL     -0.085364
    119 C39         8.9610   -1.6650   -1.9840 ca        1 MOL      0.124781
    120 C40         9.4190   -2.5150   -0.9690 ca        1 MOL     -0.208596
    121 C41         9.8220   -0.7320   -2.6290 ca        1 MOL     -0.208596
    122 C42        10.6980   -2.4220   -0.4570 ca        1 MOL     -0.053343
    123 C43        11.2180   -0.6840   -2.1440 ca        1 MOL     -0.053343
    124 C44        11.6530   -1.5730   -1.0970 ca        1 MOL     -0.203090
    125 H51         4.9180   -2.1830   -2.6750 hn        1 MOL      0.317673
    126 H52         6.6790   -1.9790   -0.4390 h1        1 MOL      0.067684
    127 H53         7.3850   -1.2290   -3.2660 hc        1 MOL      0.038411
    128 H54         7.3610   -2.8700   -2.7740 hc        1 MOL      0.038411
    129 H55         8.7550   -3.2720   -0.5600 ha        1 MOL      0.130284
    130 H56         9.5700   -0.1940   -3.5280 ha        1 MOL      0.130284
    131 H57        10.9710   -2.9310    0.4510 ha        1 MOL      0.103801
    132 H58        11.8910   -0.0060   -2.6530 ha        1 MOL      0.103801
    133 H59        12.6690   -1.5510   -0.7390 ha        1 MOL      0.124455
    134 N12         6.2200    1.1320   -1.6280 n         1 MOL     -0.264846
    135 C45         6.2880    2.4900   -1.0770 c3        1 MOL      0.023029
    136 C46         5.5400    2.7550    0.2380 c         1 MOL      0.261066
    137 O20         5.7760    3.7230    1.0380 o         1 MOL     -0.522932
    138 C47         5.9390    3.5060   -2.1830 c3        1 MOL     -0.080616
    139 C48         5.0260    2.6280   -3.0700 c3        1 MOL     -0.002910
    140 C49         5.5170    1.2390   -2.9030 c3        1 MOL     -0.055320
    141 H60         7.3190    2.7020   -0.7930 h1        1 MOL      0.071751
    142 H61         5.5120    4.4260   -1.7860 hc        1 MOL      0.054247
    143 H62         6.7800    3.7870   -2.8140 hc        1 MOL      0.054247
    144 H63         4.0710    2.8630   -2.6050 hc        1 MOL      0.029194
    145 H64         5.0460    2.9080   -4.1140 hc        1 MOL      0.029194
    146 H65         4.7250    0.5120   -3.0870 h1        1 MOL      0.055365
    147 H66         6.1380    1.0850   -3.7840 h1        1 MOL      0.055365
    148 N13         4.4270    2.0130    0.5800 n         1 MOL     -0.038707
    149 C50         3.6830    2.1210    1.7870 c3        1 MOL     -0.094962
    150 C51         4.3030    1.3480    2.9780 c         1 MOL      0.425529
    151 O21         4.1770    1.7990    4.0710 o         1 MOL     -0.533117
    152 C52         2.3070    1.4570    1.4410 c3        1 MOL      0.049300
    153 C53         1.6020    2.1370    0.2700 c3        1 MOL     -0.182683
    154 C54         0.5340    1.2600   -0.3330 c         1 MOL      0.625494
    155 O22        -0.0420    1.4970   -1.4620 o         1 MOL     -0.675171
    156 O23        -0.0470    0.3580    0.3500 o         1 MOL     -0.675171
    157 H67         4.2820    1.2600   -0.0900 hn        1 MOL      0.208537
    158 H68         3.4730    3.1730    1.9720 h1        1 MOL      0.132910
    159 H69         1.5960    1.3730    2.2670 hc        1 MOL      0.021844
    160 H70         2.3730    0.3990    1.1870 hc        1 MOL      0.021844
    161 H71         2.2840    2.3190   -0.5730 hc        1 MOL      0.050920
    162 H72         1.2270    3.1300    0.5050 hc        1 MOL      0.050920
    163 N14         5.1570    0.3000    2.7120 n         1 MOL      0.026585
    164 C55         6.1330   -0.2920    3.6270 c3        1 MOL     -0.161304
    165 H73         5.9910   -1.3720    3.6600 h1        1 MOL      0.058307
    166 H74         7.1410   -0.0700    3.2780 h1        1 MOL      0.058307
    167 H75         5.9940    0.1220    4.6250 h1        1 MOL      0.058307
    168 H76         5.3680    0.1090    1.7430 hn        1 MOL      0.004678
    169 Ca1        -2.1440   -0.2990   -1.2060 Ca        1 MOL      1.720070
@<TRIPOS>BOND
     1    1    2 1   
     2    1    4 1   
     3    1    5 1   
     4    1    6 1   
     5    2    3 2   
     6    2    7 1   
     7    7    8 1   
     8    7   15 1   
     9    8    9 1   
    10    8   11 1   
    11    8   16 1   
    12    9   10 2   
    13    9   19 1   
    14   11   12 1   
    15   11   17 1   
    16   11   18 1   
    17   12   13 1   
    18   12   14 1   
    19   19   20 1   
    20   19   24 1   
    21   20   21 1   
    22   20   23 1   
    23   20   25 1   
    24   21   22 2   
    25   21   29 1   
    26   23   26 1   
    27   23   27 1   
    28   23   28 1   
    29   29   30 1   
    30   29   37 1   
    31   30   31 1   
    32   30   33 1   
    33   30   38 1   
    34   31   32 2   
    35   31   41 1   
    36   33   34 1   
    37   33   39 1   
    38   33   40 1   
    39   34   35 1   
    40   34   36 1   
    41   41   42 1   
    42   41   45 1   
    43   42   43 1   
    44   42   46 1   
    45   42   47 1   
    46   43   44 2   
    47   43   48 1   
    48   48   49 1   
    49   48   56 1   
    50   49   50 1   
    51   49   52 1   
    52   49   57 1   
    53   50   51 2   
    54   50   62 1   
    55   52   53 1   
    56   52   58 1   
    57   52   59 1   
    58   53   54 1   
    59   53   55 2   
    60   54   60 1   
    61   54   61 1   
    62   62   63 1   
    63   62   66 1   
    64   63   64 1   
    65   63   67 1   
    66   63   68 1   
    67   64   65 2   
    68   64   69 1   
    69   69   70 1   
    70   69   76 1   
    71   70   71 1   
    72   70   73 1   
    73   70   77 1   
    74   71   72 2   
    75   71   83 1   
    76   73   74 1   
    77   73   75 1   
    78   73   78 1   
    79   74   80 1   
    80   74   81 1   
    81   74   82 1   
    82   75   79 1   
    83   83   84 1   
    84   83   91 1   
    85   84   85 1   
    86   84   87 1   
    87   84   92 1   
    88   85   86 2   
    89   85  102 1   
    90   87   88 1   
    91   87   89 1   
    92   87   93 1   
    93   88   90 1   
    94   88   94 1   
    95   88   95 1   
    96   89   96 1   
    97   89   97 1   
    98   89   98 1   
    99   90   99 1   
   100   90  100 1   
   101   90  101 1   
   102  102  103 1   
   103  102  110 1   
   104  103  104 1   
   105  103  106 1   
   106  103  111 1   
   107  104  105 2   
   108  104  114 1   
   109  106  107 1   
   110  106  112 1   
   111  106  113 1   
   112  107  108 1   
   113  107  109 1   
   114  114  115 1   
   115  114  125 1   
   116  115  116 1   
   117  115  118 1   
   118  115  126 1   
   119  116  117 2   
   120  116  134 1   
   121  118  119 1   
   122  118  127 1   
   123  118  128 1   
   124  119  120 ar  
   125  119  121 ar  
   126  120  122 ar  
   127  120  129 1   
   128  121  123 ar  
   129  121  130 1   
   130  122  124 ar  
   131  122  131 1   
   132  123  124 ar  
   133  123  132 1   
   134  124  133 1   
   135  134  135 1   
   136  134  140 1   
   137  135  136 1   
   138  135  138 1   
   139  135  141 1   
   140  136  137 2   
   141  136  148 1   
   142  138  139 1   
   143  138  142 1   
   144  138  143 1   
   145  139  140 1   
   146  139  144 1   
   147  139  145 1   
   148  140  146 1   
   149  140  147 1   
   150  148  149 1   
   151  148  157 1   
   152  149  150 1   
   153  149  152 1   
   154  149  158 1   
   155  150  151 2   
   156  150  163 1   
   157  152  153 1   
   158  152  159 1   
   159  152  160 1   
   160  153  154 1   
   161  153  161 1   
   162  153  162 1   
   163  154  155 1   
   164  154  156 1   
   165  163  164 1   
   166  163  168 1   
   167  164  165 1   
   168  164  166 1   
   169  164  167 1   
@<TRIPOS>SUBSTRUCTURE
     1 MOL         1 TEMP              0 ****  ****    0 ROOT
