@<TRIPOS>MOLECULE
MOL
  189   185     1     0     0
SMALL
resp


@<TRIPOS>ATOM
      1 C1          0.2790    2.8560   -5.5730 c3        1 MOL     -0.595638
      2 C2          0.6640    2.7160   -4.0950 c         1 MOL      0.790061
      3 O1         -0.1590    2.7310   -3.2000 o         1 MOL     -0.537214
      4 H1          1.1420    2.6190   -6.1960 hc        1 MOL      0.146648
      5 H2         -0.5350    2.1680   -5.8040 hc        1 MOL      0.146648
      6 H3         -0.0420    3.8780   -5.7700 hc        1 MOL      0.146648
      7 N1          1.9150    2.3490   -3.8560 n         1 MOL     -0.631278
      8 C3          2.2880    1.9550   -2.4690 c3        1 MOL      0.124725
      9 C4          2.4900    3.2590   -1.6220 c         1 MOL      0.388744
     10 O2          3.3940    4.0120   -1.9290 o         1 MOL     -0.535688
     11 C5          3.6020    1.1100   -2.5200 c3        1 MOL     -0.142100
     12 C6          4.1170    0.5780   -1.1520 c         1 MOL      0.791956
     13 O3          3.3230    0.7580   -0.1960 o         1 MOL     -0.676700
     14 O4          5.2120    0.0080   -1.0880 o         1 MOL     -0.676700
     15 H4          2.4870    2.1120   -4.6510 hn        1 MOL      0.347568
     16 H5          1.4810    1.4050   -1.9720 h1        1 MOL      0.029216
     17 H6          4.4520    1.6850   -2.8950 hc        1 MOL      0.032006
     18 H7          3.5120    0.2630   -3.2000 hc        1 MOL      0.032006
     19 N2          1.6680    3.4990   -0.5710 n         1 MOL     -0.141186
     20 C7          1.5990    4.7140    0.1470 c3        1 MOL      0.055965
     21 C8          2.5090    4.7890    1.4360 c         1 MOL      0.487998
     22 O5          2.4160    5.8780    2.0820 o         1 MOL     -0.572136
     23 C9          0.0910    5.1430    0.3830 c3        1 MOL     -0.044780
     24 C10        -0.8060    5.1330   -0.8480 c3        1 MOL     -0.016846
     25 C11        -0.3130    6.1320   -1.9000 c3        1 MOL     -0.083967
     26 C12        -1.4280    6.2670   -2.9320 c3        1 MOL      0.027800
     27 N3         -0.9900    7.3030   -3.9700 n4        1 MOL     -0.235605
     28 H8          0.9870    2.7890   -0.3460 hn        1 MOL      0.224128
     29 H9          1.9600    5.4820   -0.5370 h1        1 MOL      0.001364
     30 H10         0.2060    6.1460    0.7910 hc        1 MOL      0.023092
     31 H11        -0.3210    4.4020    1.0800 hc        1 MOL      0.023092
     32 H12        -1.8240    5.3810   -0.5570 hc        1 MOL      0.030945
     33 H13        -0.8640    4.1470   -1.2990 hc        1 MOL      0.030945
     34 H14         0.5090    5.6460   -2.4190 hc        1 MOL      0.054475
     35 H15        -0.1860    7.1450   -1.5190 hc        1 MOL      0.054475
     36 H16        -2.3050    6.7350   -2.4830 hx        1 MOL      0.076280
     37 H17        -1.5830    5.2800   -3.3510 hx        1 MOL      0.076280
     38 H18        -0.8970    6.9470   -4.9100 hn        1 MOL      0.281194
     39 H19        -1.6890    8.0260   -3.9510 hn        1 MOL      0.281194
     40 H20        -0.1070    7.7410   -3.7440 hn        1 MOL      0.281194
     41 N4          3.2110    3.7270    1.8330 n         1 MOL     -0.380331
     42 C13         4.1810    3.7500    2.9610 c3        1 MOL      0.189921
     43 C14         5.5340    3.0580    2.6290 c         1 MOL      0.473798
     44 O6          6.5150    3.3230    3.3390 o         1 MOL     -0.524077
     45 C15         3.5320    3.0430    4.1580 c3        1 MOL     -0.336207
     46 C16         3.2450    1.5660    4.0770 c         1 MOL      0.839201
     47 O7          3.4080    0.9540    2.9820 o         1 MOL     -0.700896
     48 O8          2.5800    1.0730    5.0030 o         1 MOL     -0.700896
     49 H21         3.0580    2.8580    1.3390 hn        1 MOL      0.159228
     50 H22         4.4960    4.7430    3.2520 h1        1 MOL      0.054850
     51 H23         2.6000    3.5600    4.3660 hc        1 MOL      0.077872
     52 H24         4.2320    3.1790    4.9980 hc        1 MOL      0.077872
     53 N5          5.5690    2.2970    1.5280 n         1 MOL     -0.344271
     54 C17         6.8270    1.8960    0.8930 c3        1 MOL     -0.229440
     55 C18         7.5040    0.5590    1.2040 c         1 MOL      0.556119
     56 O9          8.6760    0.3620    1.0310 o         1 MOL     -0.601320
     57 H25         4.7580    1.7150    1.3570 hn        1 MOL      0.227460
     58 H26         7.5230    2.6230    1.3130 h1        1 MOL      0.122056
     59 H27         6.8100    1.9790   -0.1920 h1        1 MOL      0.122056
     60 N6          6.6950   -0.3270    1.6440 n         1 MOL     -0.171250
     61 C19         7.0890   -1.7080    2.0510 c3        1 MOL      0.019259
     62 C20         7.1710   -2.6290    0.8350 c         1 MOL      0.435437
     63 O10         7.8180   -3.6980    0.9160 o         1 MOL     -0.559005
     64 C21         6.0880   -2.2760    3.0210 c3        1 MOL     -0.360876
     65 C22         4.5920   -2.0780    2.6680 c         1 MOL      0.793036
     66 O11         3.6710   -2.0020    3.5580 o         1 MOL     -0.717276
     67 O12         4.2430   -1.9490    1.4790 o         1 MOL     -0.717276
     68 H28         5.7060   -0.1550    1.5490 hn        1 MOL      0.108895
     69 H29         8.0770   -1.6250    2.5140 h1        1 MOL      0.117540
     70 H30         6.2150   -1.8080    3.9970 hc        1 MOL      0.100296
     71 H31         6.2500   -3.3590    3.0010 hc        1 MOL      0.100296
     72 N7          6.7090   -2.1540   -0.3770 n         1 MOL     -0.192354
     73 C23         6.7660   -2.8770   -1.6210 c3        1 MOL     -0.125380
     74 C24         5.4420   -3.6380   -1.9540 c         1 MOL      0.579040
     75 O13         5.5470   -4.4260   -2.8890 o         1 MOL     -0.582950
     76 H32         6.1680   -1.3050   -0.3240 hn        1 MOL      0.213346
     77 H33         7.5530   -3.6320   -1.7120 h1        1 MOL      0.089111
     78 H34         6.9400   -2.1460   -2.4050 h1        1 MOL      0.089111
     79 N8          4.3180   -3.3720   -1.2560 n         1 MOL     -0.377005
     80 C25         3.0550   -4.0510   -1.4810 c3        1 MOL     -0.015025
     81 C26         1.8530   -3.0630   -1.4370 c         1 MOL      0.716275
     82 O14         1.9090   -2.0670   -0.7880 o         1 MOL     -0.715819
     83 C27         2.7940   -5.1830   -0.4590 c3        1 MOL      0.345552
     84 C28         3.6470   -6.3630   -0.8680 c3        1 MOL     -0.399503
     85 O15         3.2140   -4.8030    0.8030 oh        1 MOL     -0.627730
     86 H35         4.3730   -2.8140   -0.4200 hn        1 MOL      0.248051
     87 H36         3.0000   -4.5010   -2.4660 h1        1 MOL      0.047799
     88 H37         1.7630   -5.5160   -0.4990 h1        1 MOL      0.028973
     89 H38         4.0980   -5.1440    0.9410 ho        1 MOL      0.444573
     90 H39         3.4580   -7.1200   -0.1130 hc        1 MOL      0.101986
     91 H40         3.2810   -6.7830   -1.8040 hc        1 MOL      0.101986
     92 H41         4.7310   -6.2170   -0.8460 hc        1 MOL      0.101986
     93 N9          0.7170   -3.4570   -2.0270 n         1 MOL     -0.562808
     94 C29        -0.4380   -2.5720   -2.2300 c3        1 MOL      0.000664
     95 C30        -1.6490   -3.2400   -1.5910 c         1 MOL      0.521438
     96 O16        -2.1670   -4.2720   -1.9620 o         1 MOL     -0.531820
     97 C31        -0.6930   -2.3330   -3.8060 c3        1 MOL      0.064124
     98 C32         0.5890   -1.7810   -4.6090 c3        1 MOL      0.297965
     99 C33        -1.8190   -1.3520   -3.9430 c3        1 MOL     -0.214482
    100 C34         0.5190   -1.8680   -6.1200 c3        1 MOL     -0.238173
    101 H42         0.7620   -4.3130   -2.5720 hn        1 MOL      0.274555
    102 H43        -0.3220   -1.5870   -1.7840 h1        1 MOL      0.146464
    103 H44        -0.9810   -3.2330   -4.3410 hc        1 MOL      0.012530
    104 H45         1.4560   -2.3480   -4.2880 hc        1 MOL     -0.057618
    105 H46         0.7200   -0.7360   -4.3230 hc        1 MOL     -0.057618
    106 H47        -1.6860   -0.4890   -3.2870 hc        1 MOL      0.035067
    107 H48        -1.8010   -0.9640   -4.9540 hc        1 MOL      0.035067
    108 H49        -2.7970   -1.7030   -3.6010 hc        1 MOL      0.035067
    109 H50         1.4100   -1.3460   -6.4610 hc        1 MOL      0.045072
    110 H51         0.5150   -2.9290   -6.3770 hc        1 MOL      0.045072
    111 H52        -0.4030   -1.4040   -6.4810 hc        1 MOL      0.045072
    112 N10        -2.1600   -2.5110   -0.5320 n         1 MOL     -0.318332
    113 C35        -3.4720   -2.9380    0.0590 c3        1 MOL      0.028812
    114 C36        -4.8280   -2.4680   -0.6810 c         1 MOL      0.310101
    115 O17        -4.7910   -1.6130   -1.6030 o         1 MOL     -0.295755
    116 C37        -3.5280   -2.5240    1.5520 c3        1 MOL      0.028017
    117 C38        -2.3250   -2.8840    2.4370 c3        1 MOL     -0.352188
    118 O18        -3.6260   -1.0940    1.6270 oh        1 MOL     -0.319646
    119 H53        -1.6690   -1.7080   -0.1870 hn        1 MOL      0.314936
    120 H54        -3.4570   -4.0220   -0.0150 h1        1 MOL      0.086619
    121 H55        -4.4670   -2.9090    1.9520 h1        1 MOL      0.019202
    122 H56        -3.2610   -0.8670    2.4870 ho        1 MOL      0.331230
    123 H57        -2.5140   -2.7070    3.5020 hc        1 MOL      0.120905
    124 H58        -2.0800   -3.9450    2.3490 hc        1 MOL      0.120905
    125 H59        -1.5150   -2.2710    2.0480 hc        1 MOL      0.120905
    126 N11        -6.0210   -2.9770   -0.2930 n         1 MOL     -0.335649
    127 C39        -7.3720   -2.4900   -0.6680 c3        1 MOL     -0.016716
    128 C40        -7.5520   -1.0160   -0.3120 c         1 MOL      0.160951
    129 O19        -8.0790   -0.2710   -1.1070 o         1 MOL     -0.442570
    130 C41        -8.4670   -3.2260    0.1200 c3        1 MOL      0.256698
    131 C42        -9.0320   -4.6440   -0.2930 c3        1 MOL     -0.428811
    132 O20        -8.0270   -3.3620    1.4900 oh        1 MOL     -0.658597
    133 H60        -6.0440   -3.6350    0.4700 hn        1 MOL      0.252073
    134 H61        -7.6060   -2.5970   -1.7350 h1        1 MOL      0.130099
    135 H62        -9.3730   -2.6240    0.0610 h1        1 MOL      0.068623
    136 H63        -8.2180   -4.2840    1.6810 ho        1 MOL      0.411236
    137 H64        -8.1940   -5.3150   -0.5040 hc        1 MOL      0.129778
    138 H65        -9.6210   -5.0210    0.5330 hc        1 MOL      0.129778
    139 H66        -9.6870   -4.5680   -1.1520 hc        1 MOL      0.129778
    140 N12        -6.9910   -0.5300    0.7810 n         1 MOL      0.004464
    141 C43        -6.9310    0.9520    1.1720 c3        1 MOL     -0.044054
    142 C44        -5.9920    1.7030    0.2180 c         1 MOL      0.369766
    143 O21        -6.3890    2.6350   -0.3970 o         1 MOL     -0.477920
    144 C45        -6.6780    1.0360    2.7410 c3        1 MOL      0.198837
    145 C46        -8.0560    0.9500    3.4780 c3        1 MOL     -0.033875
    146 C47        -7.6450    0.9360    4.9150 c3        1 MOL     -0.060035
    147 C48        -8.8000    1.2480    5.9710 c3        1 MOL     -0.187519
    148 N13        -9.8480    0.1810    5.9240 n4        1 MOL     -0.266949
    149 H67        -6.5380   -1.1920    1.4020 hn        1 MOL      0.203423
    150 H68        -7.9280    1.3310    0.9910 h1        1 MOL      0.056878
    151 H69        -6.0320    1.8750    2.9650 hc        1 MOL     -0.034385
    152 H70        -6.1240    0.1330    3.0270 hc        1 MOL     -0.034385
    153 H71        -8.5700    0.0320    3.1960 hc        1 MOL      0.005731
    154 H72        -8.5950    1.8860    3.3140 hc        1 MOL      0.005731
    155 H73        -6.9670    1.7760    5.0400 hc        1 MOL      0.048464
    156 H74        -7.1570   -0.0150    5.1420 hc        1 MOL      0.048464
    157 H75        -9.1490    2.2330    5.6510 hx        1 MOL      0.175813
    158 H76        -8.2420    1.1740    6.9040 hx        1 MOL      0.175813
    159 H77       -10.1100   -0.0770    4.9740 hn        1 MOL      0.287281
    160 H78        -9.4990   -0.7400    6.1450 hn        1 MOL      0.287281
    161 H79       -10.6590    0.4900    6.4350 hn        1 MOL      0.287281
    162 N14        -4.7960    1.2710    0.0140 n         1 MOL     -0.037837
    163 C49        -3.9230    1.8310   -0.9800 c3        1 MOL     -0.112545
    164 C50        -4.4970    1.9650   -2.4150 c         1 MOL      0.449170
    165 O22        -4.7700    3.0630   -2.8770 o         1 MOL     -0.570285
    166 C51        -2.5640    1.1590   -0.9560 c3        1 MOL      0.128866
    167 C52        -1.8020    1.5670    0.3440 c3        1 MOL      0.037875
    168 C53        -0.3880    0.8680    0.5520 c         1 MOL      0.536616
    169 O23         0.5030    1.4770    1.1900 o         1 MOL     -0.624792
    170 O24        -0.2390   -0.2990    0.2550 o         1 MOL     -0.624792
    171 H80        -4.4860    0.4580    0.5350 hn        1 MOL     -0.038760
    172 H81        -3.8470    2.8510   -0.5920 h1        1 MOL      0.061079
    173 H82        -2.0050    1.4610   -1.8440 hc        1 MOL     -0.068255
    174 H83        -2.5740    0.0700   -0.9520 hc        1 MOL     -0.068255
    175 H84        -2.4060    1.2150    1.1850 hc        1 MOL     -0.034251
    176 H85        -1.7060    2.6480    0.3870 hc        1 MOL     -0.034251
    177 N15        -4.8040    0.8160   -2.9680 n         1 MOL     -0.017409
    178 C54        -5.3980    0.7670   -4.3550 c3        1 MOL     -0.205527
    179 H86        -4.6030    0.6150   -5.0860 h1        1 MOL      0.084056
    180 H87        -6.1100   -0.0550   -4.4170 h1        1 MOL      0.084056
    181 H88        -5.9080    1.7070   -4.5660 h1        1 MOL      0.084056
    182 H89        -4.6620   -0.0680   -2.5000 hn        1 MOL      0.090133
    183 Ca1         2.1340   -0.6660    1.4960 Ca        1 MOL      1.754677
    184 O25         1.2220   -3.2360    1.6390 oh        1 MOL     -0.900482
    185 H90         1.9820   -3.7780    1.4400 ho        1 MOL      0.408077
    186 H91         0.7640   -3.7240    2.3280 ho        1 MOL      0.408077
    187 O26         0.8020   -0.4090    3.7910 oh        1 MOL     -0.900482
    188 H92         1.4400    0.1150    4.2710 ho        1 MOL      0.408077
    189 H93         0.3460   -0.9160    4.4650 ho        1 MOL      0.408077
@<TRIPOS>BOND
     1    1    2 1   
     2    1    4 1   
     3    1    5 1   
     4    1    6 1   
     5    2    3 2   
     6    2    7 1   
     7    7    8 1   
     8    7   15 1   
     9    8    9 1   
    10    8   11 1   
    11    8   16 1   
    12    9   10 2   
    13    9   19 1   
    14   11   12 1   
    15   11   17 1   
    16   11   18 1   
    17   12   13 1   
    18   12   14 1   
    19   19   20 1   
    20   19   28 1   
    21   20   21 1   
    22   20   23 1   
    23   20   29 1   
    24   21   22 2   
    25   21   41 1   
    26   23   24 1   
    27   23   30 1   
    28   23   31 1   
    29   24   25 1   
    30   24   32 1   
    31   24   33 1   
    32   25   26 1   
    33   25   34 1   
    34   25   35 1   
    35   26   27 1   
    36   26   36 1   
    37   26   37 1   
    38   27   38 1   
    39   27   39 1   
    40   27   40 1   
    41   41   42 1   
    42   41   49 1   
    43   42   43 1   
    44   42   45 1   
    45   42   50 1   
    46   43   44 2   
    47   43   53 1   
    48   45   46 1   
    49   45   51 1   
    50   45   52 1   
    51   46   47 1   
    52   46   48 1   
    53   53   54 1   
    54   53   57 1   
    55   54   55 1   
    56   54   58 1   
    57   54   59 1   
    58   55   56 2   
    59   55   60 1   
    60   60   61 1   
    61   60   68 1   
    62   61   62 1   
    63   61   64 1   
    64   61   69 1   
    65   62   63 2   
    66   62   72 1   
    67   64   65 1   
    68   64   70 1   
    69   64   71 1   
    70   65   66 1   
    71   65   67 1   
    72   72   73 1   
    73   72   76 1   
    74   73   74 1   
    75   73   77 1   
    76   73   78 1   
    77   74   75 2   
    78   74   79 1   
    79   79   80 1   
    80   79   86 1   
    81   80   81 1   
    82   80   83 1   
    83   80   87 1   
    84   81   82 2   
    85   81   93 1   
    86   83   84 1   
    87   83   85 1   
    88   83   88 1   
    89   84   90 1   
    90   84   91 1   
    91   84   92 1   
    92   85   89 1   
    93   93   94 1   
    94   93  101 1   
    95   94   95 1   
    96   94   97 1   
    97   94  102 1   
    98   95   96 2   
    99   95  112 1   
   100   97   98 1   
   101   97   99 1   
   102   97  103 1   
   103   98  100 1   
   104   98  104 1   
   105   98  105 1   
   106   99  106 1   
   107   99  107 1   
   108   99  108 1   
   109  100  109 1   
   110  100  110 1   
   111  100  111 1   
   112  112  113 1   
   113  112  119 1   
   114  113  114 1   
   115  113  116 1   
   116  113  120 1   
   117  114  115 2   
   118  114  126 1   
   119  116  117 1   
   120  116  118 1   
   121  116  121 1   
   122  117  123 1   
   123  117  124 1   
   124  117  125 1   
   125  118  122 1   
   126  126  127 1   
   127  126  133 1   
   128  127  128 1   
   129  127  130 1   
   130  127  134 1   
   131  128  129 2   
   132  128  140 1   
   133  130  131 1   
   134  130  132 1   
   135  130  135 1   
   136  131  137 1   
   137  131  138 1   
   138  131  139 1   
   139  132  136 1   
   140  140  141 1   
   141  140  149 1   
   142  141  142 1   
   143  141  144 1   
   144  141  150 1   
   145  142  143 2   
   146  142  162 1   
   147  144  145 1   
   148  144  151 1   
   149  144  152 1   
   150  145  146 1   
   151  145  153 1   
   152  145  154 1   
   153  146  147 1   
   154  146  155 1   
   155  146  156 1   
   156  147  148 1   
   157  147  157 1   
   158  147  158 1   
   159  148  159 1   
   160  148  160 1   
   161  148  161 1   
   162  162  163 1   
   163  162  171 1   
   164  163  164 1   
   165  163  166 1   
   166  163  172 1   
   167  164  165 2   
   168  164  177 1   
   169  166  167 1   
   170  166  173 1   
   171  166  174 1   
   172  167  168 1   
   173  167  175 1   
   174  167  176 1   
   175  168  169 1   
   176  168  170 1   
   177  177  178 1   
   178  177  182 1   
   179  178  179 1   
   180  178  180 1   
   181  178  181 1   
   182  184  185 1   
   183  184  186 1   
   184  187  188 1   
   185  187  189 1   
@<TRIPOS>SUBSTRUCTURE
     1 MOL         1 TEMP              0 ****  ****    0 ROOT
