@<TRIPOS>MOLECULE
MOL
  189   185     1     0     0
SMALL
resp


@<TRIPOS>ATOM
      1 C1         -0.3780    2.4430   -5.2860 c3        1 MOL     -0.536815
      2 C2          0.2890    2.1940   -3.9440 c         1 MOL      0.582478
      3 O1         -0.4050    2.4210   -2.9520 o         1 MOL     -0.438094
      4 H1          0.2830    2.1090   -6.0860 hc        1 MOL      0.141782
      5 H2         -1.3150    1.8900   -5.3350 hc        1 MOL      0.141782
      6 H3         -0.5770    3.5080   -5.4010 hc        1 MOL      0.141782
      7 N1          1.5160    1.6800   -3.9180 n         1 MOL     -0.350546
      8 C3          2.2160    1.2890   -2.6630 c3        1 MOL      0.084009
      9 C4          2.8160    2.5630   -1.9740 c         1 MOL      0.198110
     10 O2          3.9770    2.9880   -2.2250 o         1 MOL     -0.418235
     11 C5          3.2480    0.2030   -2.8250 c3        1 MOL     -0.011941
     12 C6          4.0290   -0.2110   -1.5550 c         1 MOL      0.604713
     13 O3          3.6200    0.0250   -0.3940 o         1 MOL     -0.661073
     14 O4          5.1710   -0.6630   -1.6380 o         1 MOL     -0.661073
     15 H4          1.9460    1.5970   -4.8240 hn        1 MOL      0.272385
     16 H5          1.4680    0.7830   -2.0520 h1        1 MOL      0.014361
     17 H6          3.9960    0.5390   -3.5460 hc        1 MOL      0.014547
     18 H7          2.7670   -0.6670   -3.2760 hc        1 MOL      0.014547
     19 N2          1.9610    3.3450   -1.2420 n         1 MOL      0.021642
     20 C7          2.3180    4.6930   -0.8570 c3        1 MOL      0.171659
     21 C8          3.4560    4.8920    0.1010 c         1 MOL      0.319379
     22 O5          4.1450    5.9040    0.0550 o         1 MOL     -0.525025
     23 C9          1.0960    5.2780   -0.1390 c3        1 MOL     -0.203360
     24 C10        -0.0950    5.6860   -1.0260 c3        1 MOL      0.327327
     25 C11         0.2770    6.5440   -2.2310 c3        1 MOL     -0.223839
     26 C12        -0.9860    7.1670   -2.7520 c3        1 MOL      0.206670
     27 N3         -0.8360    7.6560   -4.1110 n4        1 MOL     -0.380949
     28 H8          1.0210    3.0460   -1.0530 hn        1 MOL     -0.117920
     29 H9          2.6010    5.2410   -1.7580 h1        1 MOL      0.005472
     30 H10         1.3960    6.1930    0.3810 hc        1 MOL      0.060168
     31 H11         0.7600    4.5320    0.5830 hc        1 MOL      0.060168
     32 H12        -0.7560    6.2620   -0.3810 hc        1 MOL     -0.045955
     33 H13        -0.6370    4.8130   -1.4030 hc        1 MOL     -0.045955
     34 H14         0.7290    5.8760   -2.9600 hc        1 MOL      0.053518
     35 H15         0.9670    7.2620   -1.7870 hc        1 MOL      0.053518
     36 H16        -1.3400    8.0200   -2.1770 hx        1 MOL      0.037230
     37 H17        -1.8170    6.4550   -2.7720 hx        1 MOL      0.037230
     38 H18        -0.8970    6.8800   -4.7510 hn        1 MOL      0.325134
     39 H19        -1.5880    8.2810   -4.3820 hn        1 MOL      0.325134
     40 H20         0.0330    8.1770   -4.1420 hn        1 MOL      0.325134
     41 N4          3.5610    3.8900    1.0390 n         1 MOL     -0.140060
     42 C13         4.5870    3.8980    2.1280 c3        1 MOL      0.012600
     43 C14         5.8250    2.9960    1.7680 c         1 MOL      0.364508
     44 O6          6.7120    2.7180    2.5560 o         1 MOL     -0.510252
     45 C15         4.0250    3.4740    3.4920 c3        1 MOL     -0.150478
     46 C16         3.2240    2.1670    3.4990 c         1 MOL      0.737993
     47 O7          3.1930    1.4070    2.4660 o         1 MOL     -0.688455
     48 O8          2.6000    1.9430    4.5830 o         1 MOL     -0.688455
     49 H21         2.9970    3.0590    0.9490 hn        1 MOL      0.093423
     50 H22         4.9860    4.8990    2.2950 h1        1 MOL      0.094855
     51 H23         3.2840    4.2360    3.7020 hc        1 MOL      0.030296
     52 H24         4.7180    3.5500    4.3270 hc        1 MOL      0.030296
     53 N5          5.8680    2.5610    0.5240 n         1 MOL     -0.183716
     54 C17         6.9710    1.7070   -0.0550 c3        1 MOL     -0.138566
     55 C18         7.3390    0.3830    0.6980 c         1 MOL      0.549277
     56 O9          8.5230    0.0650    0.7500 o         1 MOL     -0.575927
     57 H25         5.0430    2.7510   -0.0230 hn        1 MOL      0.140653
     58 H26         7.8670    2.3150   -0.1860 h1        1 MOL      0.099703
     59 H27         6.6550    1.4260   -1.0590 h1        1 MOL      0.099703
     60 N6          6.3350   -0.3310    1.3210 n         1 MOL     -0.197615
     61 C19         6.6360   -1.5520    2.0460 c3        1 MOL     -0.011300
     62 C20         6.7020   -2.7940    1.2000 c         1 MOL      0.432352
     63 O10         7.2040   -3.8450    1.6240 o         1 MOL     -0.540476
     64 C21         5.6500   -1.7430    3.1900 c3        1 MOL     -0.355464
     65 C22         4.2040   -1.7730    2.7440 c         1 MOL      0.833970
     66 O11         3.8280   -2.1630    1.6270 o         1 MOL     -0.744645
     67 O12         3.3150   -1.5020    3.5560 o         1 MOL     -0.744645
     68 H28         5.4120   -0.0450    1.0170 hn        1 MOL      0.141023
     69 H29         7.5910   -1.5180    2.5550 h1        1 MOL      0.122359
     70 H30         5.7920   -0.9140    3.8760 hc        1 MOL      0.117888
     71 H31         5.9340   -2.7290    3.5710 hc        1 MOL      0.117888
     72 N7          6.3210   -2.7530   -0.1400 n         1 MOL     -0.209855
     73 C23         6.4980   -3.7490   -1.2170 c3        1 MOL     -0.063620
     74 C24         5.1120   -4.3610   -1.5540 c         1 MOL      0.513063
     75 O13         5.0600   -5.3430   -2.3430 o         1 MOL     -0.602381
     76 H32         5.8950   -1.8960   -0.4570 hn        1 MOL      0.177579
     77 H33         7.2600   -4.4760   -0.9590 h1        1 MOL      0.072364
     78 H34         6.8200   -3.3480   -2.1810 h1        1 MOL      0.072364
     79 N8          4.0830   -3.8420   -1.0030 n         1 MOL     -0.362030
     80 C25         2.7020   -4.4350   -0.9190 c3        1 MOL     -0.259933
     81 C26         1.5290   -3.4270   -1.0580 c         1 MOL      0.827111
     82 O14         1.6330   -2.3520   -0.4560 o         1 MOL     -0.751505
     83 C27         2.4960   -5.2390    0.3630 c3        1 MOL      0.419158
     84 C28         3.1070   -6.6340    0.2750 c3        1 MOL     -0.519650
     85 O15         3.1890   -4.7210    1.5530 oh        1 MOL     -0.640879
     86 H35         4.2760   -3.0030   -0.4890 hn        1 MOL      0.415064
     87 H36         2.6020   -5.1420   -1.7410 h1        1 MOL      0.130418
     88 H37         1.4320   -5.2640    0.6090 h1        1 MOL     -0.035256
     89 H38         3.3140   -3.7650    1.4950 ho        1 MOL      0.406812
     90 H39         2.7110   -7.1620   -0.5950 hc        1 MOL      0.145881
     91 H40         4.1710   -6.5630    0.0690 hc        1 MOL      0.145881
     92 H41         3.0340   -7.1280    1.2440 hc        1 MOL      0.145881
     93 N9          0.5140   -3.8500   -1.7680 n         1 MOL     -0.654445
     94 C29        -0.6590   -3.0010   -1.9590 c3        1 MOL      0.134691
     95 C30        -1.8650   -3.5400   -1.1680 c         1 MOL      0.478900
     96 O16        -2.1710   -4.7510   -1.2100 o         1 MOL     -0.557373
     97 C31        -0.9860   -2.8880   -3.4740 c3        1 MOL      0.101611
     98 C32         0.3490   -2.4800   -4.3210 c3        1 MOL      0.419971
     99 C33        -2.0840   -1.8140   -3.5670 c3        1 MOL     -0.484358
    100 C34         0.0960   -2.5790   -5.8090 c3        1 MOL     -0.248827
    101 H42         0.5250   -4.7780   -2.1810 hn        1 MOL      0.319125
    102 H43        -0.4830   -1.9740   -1.6490 h1        1 MOL      0.129267
    103 H44        -1.3020   -3.8340   -3.9060 hc        1 MOL      0.010480
    104 H45         1.1250   -3.2100   -4.0970 hc        1 MOL     -0.108011
    105 H46         0.7450   -1.5110   -4.0140 hc        1 MOL     -0.108011
    106 H47        -2.2290   -1.3750   -4.5450 hc        1 MOL      0.086390
    107 H48        -3.0320   -2.1500   -3.1400 hc        1 MOL      0.086390
    108 H49        -1.8300   -0.9700   -2.9130 hc        1 MOL      0.086390
    109 H50         0.0010   -3.6290   -6.0880 hc        1 MOL      0.043712
    110 H51        -0.7810   -2.0150   -6.1220 hc        1 MOL      0.043712
    111 H52         0.9410   -2.1180   -6.3240 hc        1 MOL      0.043712
    112 N10        -2.6840   -2.6600   -0.5370 n         1 MOL     -0.176077
    113 C35        -3.7680   -2.9370    0.4510 c3        1 MOL      0.096052
    114 C36        -5.0890   -2.6280   -0.1130 c         1 MOL      0.403764
    115 O17        -5.2650   -1.9290   -1.0710 o         1 MOL     -0.388774
    116 C37        -3.5200   -2.3490    1.8130 c3        1 MOL      0.122012
    117 C38        -2.1170   -2.6550    2.2970 c3        1 MOL     -0.528205
    118 O18        -3.9290   -1.0290    1.6710 oh        1 MOL     -0.338358
    119 H53        -2.3860   -1.7050   -0.6370 hn        1 MOL      0.182513
    120 H54        -3.8450   -4.0070    0.5950 h1        1 MOL      0.039573
    121 H55        -4.1960   -2.8800    2.4780 h1        1 MOL      0.010374
    122 H56        -3.6070   -0.5970    2.4680 ho        1 MOL      0.353181
    123 H57        -1.3070   -2.1460    1.7750 hc        1 MOL      0.152915
    124 H58        -2.0660   -2.3600    3.3460 hc        1 MOL      0.152915
    125 H59        -1.8620   -3.7150    2.2360 hc        1 MOL      0.152915
    126 N11        -6.2080   -3.0750    0.5220 n         1 MOL     -0.323233
    127 C39        -7.5720   -2.6350    0.0620 c3        1 MOL     -0.270535
    128 C40        -7.9340   -1.1920    0.3040 c         1 MOL      0.468840
    129 O19        -8.8020   -0.6400   -0.3720 o         1 MOL     -0.475522
    130 C41        -8.7470   -3.5210    0.5310 c3        1 MOL      0.538016
    131 C42        -8.4960   -5.0460    0.3460 c3        1 MOL     -0.517607
    132 O20        -8.9160   -3.3300    1.9880 oh        1 MOL     -0.619309
    133 H60        -6.1330   -3.5590    1.4010 hn        1 MOL      0.232002
    134 H61        -7.6260   -2.7600   -1.0210 h1        1 MOL      0.156754
    135 H62        -9.5820   -3.1180   -0.0410 h1        1 MOL      0.020458
    136 H63        -8.0060   -3.3070    2.2870 ho        1 MOL      0.362531
    137 H64        -7.6960   -5.4370    0.9630 hc        1 MOL      0.133748
    138 H65        -9.3540   -5.6000    0.7130 hc        1 MOL      0.133748
    139 H66        -8.2560   -5.2840   -0.6970 hc        1 MOL      0.133748
    140 N12        -7.0890   -0.5000    1.1460 n         1 MOL     -0.377638
    141 C43        -7.0730    0.9630    1.3910 c3        1 MOL     -0.077129
    142 C44        -6.3010    1.7500    0.3380 c         1 MOL      0.455464
    143 O21        -6.6210    2.7940   -0.1560 o         1 MOL     -0.523086
    144 C45        -6.5000    1.1870    2.8310 c3        1 MOL      0.050994
    145 C46        -6.6140    2.6980    3.1470 c3        1 MOL      0.025942
    146 C47        -6.6860    3.0960    4.6170 c3        1 MOL     -0.240600
    147 C48        -5.5150    2.6580    5.4990 c3        1 MOL      0.294578
    148 N13        -5.3060    3.5110    6.7120 n4        1 MOL     -0.471246
    149 H67        -6.3860   -1.0900    1.5770 hn        1 MOL      0.167133
    150 H68        -8.1310    1.2300    1.4020 h1        1 MOL      0.140396
    151 H69        -5.4790    0.8040    2.8760 hc        1 MOL     -0.008103
    152 H70        -7.0580    0.6040    3.5650 hc        1 MOL     -0.008103
    153 H71        -7.5260    2.9640    2.6180 hc        1 MOL      0.036629
    154 H72        -5.8050    3.2930    2.7310 hc        1 MOL      0.036629
    155 H73        -7.5480    2.6110    5.0800 hc        1 MOL      0.087098
    156 H74        -6.7180    4.1870    4.6310 hc        1 MOL      0.087098
    157 H75        -4.5860    2.7950    4.9400 hx        1 MOL      0.017955
    158 H76        -5.4200    1.6000    5.7450 hx        1 MOL      0.017955
    159 H77        -4.3510    3.4390    7.0330 hn        1 MOL      0.346819
    160 H78        -5.3790    4.5040    6.5200 hn        1 MOL      0.346819
    161 H79        -5.7700    3.2950    7.5800 hn        1 MOL      0.346819
    162 N14        -5.1420    1.1600    0.0230 n         1 MOL     -0.123944
    163 C49        -4.2630    1.7520   -1.0380 c3        1 MOL     -0.173587
    164 C50        -4.9250    1.7080   -2.4520 c         1 MOL      0.619625
    165 O22        -4.8520    2.6990   -3.2000 o         1 MOL     -0.568796
    166 C51        -2.8670    1.0920   -1.0730 c3        1 MOL     -0.030492
    167 C52        -1.9530    1.7640   -0.0390 c3        1 MOL     -0.269606
    168 C53        -0.6480    1.1300    0.2350 c         1 MOL      0.775687
    169 O23         0.1830    1.7580    0.9230 o         1 MOL     -0.717070
    170 O24        -0.3990   -0.0390   -0.0250 o         1 MOL     -0.717070
    171 H80        -4.8100    0.3770    0.5610 hn        1 MOL      0.111697
    172 H81        -4.1790    2.8120   -0.7890 h1        1 MOL      0.065695
    173 H82        -2.5810    1.3740   -2.0870 hc        1 MOL      0.053380
    174 H83        -3.0100    0.0140   -0.9190 hc        1 MOL      0.053380
    175 H84        -2.4970    1.7870    0.9120 hc        1 MOL      0.061595
    176 H85        -1.8020    2.7680   -0.4100 hc        1 MOL      0.061595
    177 N15        -5.5140    0.5390   -2.8660 n         1 MOL     -0.284998
    178 C54        -6.3420    0.4070   -4.0900 c3        1 MOL     -0.312029
    179 H86        -6.5280   -0.6480   -4.2900 h1        1 MOL      0.126201
    180 H87        -7.2920    0.9210   -3.9440 h1        1 MOL      0.126201
    181 H88        -5.8150    0.8490   -4.9360 h1        1 MOL      0.126201
    182 H89        -5.6010   -0.2360   -2.2180 hn        1 MOL      0.261395
    183 Ca1         1.8180   -0.3530    1.3010 Ca        1 MOL      1.758733
    184 O25         1.1990   -2.8020    2.3970 oh        1 MOL     -0.827402
    185 H90         1.9260   -2.6270    3.0050 ho        1 MOL      0.393131
    186 H91         1.3810   -3.6900    2.0620 ho        1 MOL      0.393131
    187 O26         0.0550    0.3300    3.3080 oh        1 MOL     -0.827402
    188 H92         0.3590   -0.0150    4.1420 ho        1 MOL      0.393131
    189 H93        -0.8370    0.6330    3.4950 ho        1 MOL      0.393131
@<TRIPOS>BOND
     1    1    2 1   
     2    1    4 1   
     3    1    5 1   
     4    1    6 1   
     5    2    3 2   
     6    2    7 1   
     7    7    8 1   
     8    7   15 1   
     9    8    9 1   
    10    8   11 1   
    11    8   16 1   
    12    9   10 2   
    13    9   19 1   
    14   11   12 1   
    15   11   17 1   
    16   11   18 1   
    17   12   13 1   
    18   12   14 1   
    19   19   20 1   
    20   19   28 1   
    21   20   21 1   
    22   20   23 1   
    23   20   29 1   
    24   21   22 2   
    25   21   41 1   
    26   23   24 1   
    27   23   30 1   
    28   23   31 1   
    29   24   25 1   
    30   24   32 1   
    31   24   33 1   
    32   25   26 1   
    33   25   34 1   
    34   25   35 1   
    35   26   27 1   
    36   26   36 1   
    37   26   37 1   
    38   27   38 1   
    39   27   39 1   
    40   27   40 1   
    41   41   42 1   
    42   41   49 1   
    43   42   43 1   
    44   42   45 1   
    45   42   50 1   
    46   43   44 2   
    47   43   53 1   
    48   45   46 1   
    49   45   51 1   
    50   45   52 1   
    51   46   47 1   
    52   46   48 1   
    53   53   54 1   
    54   53   57 1   
    55   54   55 1   
    56   54   58 1   
    57   54   59 1   
    58   55   56 2   
    59   55   60 1   
    60   60   61 1   
    61   60   68 1   
    62   61   62 1   
    63   61   64 1   
    64   61   69 1   
    65   62   63 2   
    66   62   72 1   
    67   64   65 1   
    68   64   70 1   
    69   64   71 1   
    70   65   66 1   
    71   65   67 1   
    72   72   73 1   
    73   72   76 1   
    74   73   74 1   
    75   73   77 1   
    76   73   78 1   
    77   74   75 2   
    78   74   79 1   
    79   79   80 1   
    80   79   86 1   
    81   80   81 1   
    82   80   83 1   
    83   80   87 1   
    84   81   82 2   
    85   81   93 1   
    86   83   84 1   
    87   83   85 1   
    88   83   88 1   
    89   84   90 1   
    90   84   91 1   
    91   84   92 1   
    92   85   89 1   
    93   93   94 1   
    94   93  101 1   
    95   94   95 1   
    96   94   97 1   
    97   94  102 1   
    98   95   96 2   
    99   95  112 1   
   100   97   98 1   
   101   97   99 1   
   102   97  103 1   
   103   98  100 1   
   104   98  104 1   
   105   98  105 1   
   106   99  106 1   
   107   99  107 1   
   108   99  108 1   
   109  100  109 1   
   110  100  110 1   
   111  100  111 1   
   112  112  113 1   
   113  112  119 1   
   114  113  114 1   
   115  113  116 1   
   116  113  120 1   
   117  114  115 2   
   118  114  126 1   
   119  116  117 1   
   120  116  118 1   
   121  116  121 1   
   122  117  123 1   
   123  117  124 1   
   124  117  125 1   
   125  118  122 1   
   126  126  127 1   
   127  126  133 1   
   128  127  128 1   
   129  127  130 1   
   130  127  134 1   
   131  128  129 2   
   132  128  140 1   
   133  130  131 1   
   134  130  132 1   
   135  130  135 1   
   136  131  137 1   
   137  131  138 1   
   138  131  139 1   
   139  132  136 1   
   140  140  141 1   
   141  140  149 1   
   142  141  142 1   
   143  141  144 1   
   144  141  150 1   
   145  142  143 2   
   146  142  162 1   
   147  144  145 1   
   148  144  151 1   
   149  144  152 1   
   150  145  146 1   
   151  145  153 1   
   152  145  154 1   
   153  146  147 1   
   154  146  155 1   
   155  146  156 1   
   156  147  148 1   
   157  147  157 1   
   158  147  158 1   
   159  148  159 1   
   160  148  160 1   
   161  148  161 1   
   162  162  163 1   
   163  162  171 1   
   164  163  164 1   
   165  163  166 1   
   166  163  172 1   
   167  164  165 2   
   168  164  177 1   
   169  166  167 1   
   170  166  173 1   
   171  166  174 1   
   172  167  168 1   
   173  167  175 1   
   174  167  176 1   
   175  168  169 1   
   176  168  170 1   
   177  177  178 1   
   178  177  182 1   
   179  178  179 1   
   180  178  180 1   
   181  178  181 1   
   182  184  185 1   
   183  184  186 1   
   184  187  188 1   
   185  187  189 1   
@<TRIPOS>SUBSTRUCTURE
     1 MOL         1 TEMP              0 ****  ****    0 ROOT
