@<TRIPOS>MOLECULE
MOL
  189   185     1     0     0
SMALL
resp


@<TRIPOS>ATOM
      1 C1         -0.3280    3.5260    5.0690 c3        1 MOL     -0.351650
      2 C2         -0.5920    3.1610    3.5990 c         1 MOL      0.729986
      3 O1          0.2650    3.4790    2.7560 o         1 MOL     -0.604268
      4 H1         -0.4600    2.6410    5.6920 hc        1 MOL      0.085790
      5 H2          0.6920    3.8950    5.1750 hc        1 MOL      0.085790
      6 H3         -1.0280    4.2990    5.3840 hc        1 MOL      0.085790
      7 N1         -1.8190    2.6360    3.3170 n         1 MOL     -0.509749
      8 C3         -2.3050    2.2310    2.0080 c3        1 MOL      0.029809
      9 C4         -2.7720    3.3500    1.1120 c         1 MOL      0.315747
     10 O2         -3.8440    3.9700    1.3310 o         1 MOL     -0.541661
     11 C5         -3.4690    1.2550    2.3720 c3        1 MOL     -0.313830
     12 C6         -3.9810    0.5780    1.1420 c         1 MOL      0.877509
     13 O3         -4.9520   -0.2150    1.2560 o         1 MOL     -0.784734
     14 O4         -3.4480    0.7520    0.0250 o         1 MOL     -0.784734
     15 H4         -2.5420    2.4890    3.9960 hn        1 MOL      0.301073
     16 H5         -1.4620    1.7140    1.5580 h1        1 MOL      0.064832
     17 H6         -4.3270    1.7900    2.7700 hc        1 MOL      0.098834
     18 H7         -3.1610    0.4690    3.0660 hc        1 MOL      0.098834
     19 N2         -2.0400    3.6420    0.0510 n         1 MOL      0.091023
     20 C7         -2.2600    4.7990   -0.7490 c3        1 MOL      0.045678
     21 C8         -3.1620    4.6110   -1.9400 c         1 MOL      0.476152
     22 O5         -3.1190    5.3490   -2.9000 o         1 MOL     -0.550031
     23 C9         -0.9740    5.5540   -1.1850 c3        1 MOL     -0.016269
     24 C10         0.0320    5.5800   -0.0230 c3        1 MOL      0.138679
     25 C11        -0.4550    6.5360    1.0580 c3        1 MOL     -0.398552
     26 C12         0.7360    6.8800    1.9940 c3        1 MOL      0.228438
     27 N3          0.2300    7.7260    3.0470 n4        1 MOL     -0.392621
     28 H8         -1.2740    2.9970   -0.1020 hn        1 MOL      0.096200
     29 H9         -2.8850    5.4750   -0.1610 h1        1 MOL      0.029719
     30 H10        -1.1650    6.4960   -1.7040 hc        1 MOL      0.021424
     31 H11        -0.4410    4.9880   -1.9540 hc        1 MOL      0.021424
     32 H12         0.9390    6.0090   -0.4480 hc        1 MOL      0.017323
     33 H13         0.3270    4.5890    0.3310 hc        1 MOL      0.017323
     34 H14        -1.2550    6.0840    1.6520 hc        1 MOL      0.100261
     35 H15        -0.9210    7.3730    0.5330 hc        1 MOL      0.100261
     36 H16         1.5970    7.3330    1.4890 hx        1 MOL      0.046363
     37 H17         1.0710    5.9770    2.4940 hx        1 MOL      0.046363
     38 H18         0.9730    8.2070    3.5440 hn        1 MOL      0.326337
     39 H19        -0.4620    8.3740    2.6970 hn        1 MOL      0.326337
     40 H20        -0.1870    7.0680    3.6880 hn        1 MOL      0.326337
     41 N4         -4.0140    3.5980   -1.8610 n         1 MOL     -0.251793
     42 C13        -4.9680    3.3250   -2.9730 c3        1 MOL      0.033075
     43 C14        -6.1060    2.3840   -2.4480 c         1 MOL      0.357476
     44 O6         -7.0340    2.0060   -3.2380 o         1 MOL     -0.508815
     45 C15        -4.2670    2.6180   -4.1430 c3        1 MOL     -0.214852
     46 C16        -3.3460    1.4050   -3.7790 c         1 MOL      0.776348
     47 O7         -2.3240    1.1880   -4.4410 o         1 MOL     -0.689659
     48 O8         -3.7000    0.5850   -2.8850 o         1 MOL     -0.689659
     49 H21        -4.1160    3.0910   -0.9880 hn        1 MOL     -0.013998
     50 H22        -5.4530    4.2190   -3.3660 h1        1 MOL      0.104662
     51 H23        -3.8140    3.3690   -4.7910 hc        1 MOL      0.067746
     52 H24        -5.0500    2.2130   -4.7790 hc        1 MOL      0.067746
     53 N5         -6.1350    1.9120   -1.1670 n         1 MOL     -0.235072
     54 C17        -7.3030    1.3930   -0.5280 c3        1 MOL     -0.324769
     55 C18        -7.6240   -0.0770   -0.7440 c         1 MOL      0.587037
     56 O9         -8.7000   -0.5340   -0.3360 o         1 MOL     -0.598479
     57 H25        -5.3360    2.0680   -0.5680 hn        1 MOL      0.373304
     58 H26        -8.1470    2.0150   -0.8320 h1        1 MOL      0.132705
     59 H27        -7.0940    1.5890    0.5300 h1        1 MOL      0.132705
     60 N6         -6.6530   -0.7980   -1.2800 n         1 MOL     -0.229813
     61 C19        -6.8550   -2.1560   -1.6220 c3        1 MOL     -0.013696
     62 C20        -6.9200   -3.0980   -0.4180 c         1 MOL      0.485484
     63 O10        -7.3100   -4.2160   -0.6040 o         1 MOL     -0.554907
     64 C21        -5.9110   -2.7330   -2.7160 c3        1 MOL     -0.310540
     65 C22        -4.4160   -2.6400   -2.4060 c         1 MOL      0.788478
     66 O11        -3.9750   -2.4160   -1.2790 o         1 MOL     -0.685824
     67 O12        -3.5700   -2.5940   -3.3660 o         1 MOL     -0.685824
     68 H28        -5.7710   -0.3450   -1.4520 hn        1 MOL      0.251120
     69 H29        -7.8610   -2.2110   -2.0310 h1        1 MOL      0.099258
     70 H30        -6.1240   -2.1340   -3.6100 hc        1 MOL      0.100657
     71 H31        -6.1150   -3.7920   -2.8970 hc        1 MOL      0.100657
     72 N7         -6.5840   -2.7200    0.8100 n         1 MOL     -0.295213
     73 C23        -6.5330   -3.6250    1.9630 c3        1 MOL     -0.144212
     74 C24        -5.1700   -4.2360    2.3250 c         1 MOL      0.432861
     75 O13        -5.0370   -5.2200    3.0930 o         1 MOL     -0.538994
     76 H32        -6.2840   -1.7550    0.9010 hn        1 MOL      0.291090
     77 H33        -7.1970   -4.4570    1.7490 h1        1 MOL      0.108155
     78 H34        -6.9120   -3.1460    2.8730 h1        1 MOL      0.108155
     79 N8         -4.1180   -3.7580    1.5810 n         1 MOL     -0.130735
     80 C25        -2.7460   -4.2620    1.7980 c3        1 MOL     -0.300713
     81 C26        -1.6980   -3.1250    1.5320 c         1 MOL      0.611968
     82 O14        -1.9640   -2.0600    0.9770 o         1 MOL     -0.595512
     83 C27        -2.4930   -5.3510    0.7480 c3        1 MOL      0.513055
     84 C28        -3.1630   -6.7150    0.9690 c3        1 MOL     -0.406401
     85 O15        -2.8330   -4.9850   -0.5460 oh        1 MOL     -0.614385
     86 H35        -4.2890   -2.8780    1.1200 hn        1 MOL      0.233756
     87 H36        -2.6560   -4.6200    2.8130 h1        1 MOL      0.136233
     88 H37        -1.4270   -5.5730    0.7370 h1        1 MOL     -0.014988
     89 H38        -3.4930   -4.2880   -0.5190 ho        1 MOL      0.361057
     90 H39        -2.7370   -7.0270    1.9220 hc        1 MOL      0.098177
     91 H40        -4.2410   -6.5690    1.0880 hc        1 MOL      0.098177
     92 H41        -2.7110   -7.3320    0.1880 hc        1 MOL      0.098177
     93 N9         -0.5680   -3.2600    2.3070 n         1 MOL     -0.574200
     94 C29         0.5620   -2.3530    2.3740 c3        1 MOL      0.078357
     95 C30         1.8110   -3.0110    1.8000 c         1 MOL      0.441485
     96 O16         2.2130   -4.0590    2.2810 o         1 MOL     -0.552968
     97 C31         0.7880   -1.6950    3.7630 c3        1 MOL      0.269395
     98 C32        -0.5550   -1.0100    4.3050 c3        1 MOL     -0.022101
     99 C33         1.8600   -0.6150    3.5850 c3        1 MOL     -0.437081
    100 C34        -0.3970   -1.0590    5.8490 c3        1 MOL     -0.334358
    101 H42        -0.5640   -4.0900    2.8810 hn        1 MOL      0.293072
    102 H43         0.3170   -1.5520    1.6750 h1        1 MOL      0.055131
    103 H44         1.0810   -2.4850    4.4460 hc        1 MOL      0.003924
    104 H45        -1.4850   -1.4510    3.9690 hc        1 MOL      0.056663
    105 H46        -0.6610    0.0370    4.0190 hc        1 MOL      0.056663
    106 H47         2.0530   -0.2090    4.5720 hc        1 MOL      0.088328
    107 H48         2.7890   -0.9680    3.1430 hc        1 MOL      0.088328
    108 H49         1.3600    0.1680    3.0010 hc        1 MOL      0.088328
    109 H50        -1.2320   -0.5330    6.3210 hc        1 MOL      0.078427
    110 H51        -0.2520   -2.0700    6.2270 hc        1 MOL      0.078427
    111 H52         0.4510   -0.4200    6.1050 hc        1 MOL      0.078427
    112 N10         2.4740   -2.3810    0.8250 n         1 MOL     -0.206633
    113 C35         3.7230   -2.7080    0.1210 c3        1 MOL      0.073685
    114 C36         4.9270   -2.1140    0.8320 c         1 MOL      0.387128
    115 O17         4.7800   -1.1570    1.5630 o         1 MOL     -0.351318
    116 C37         3.7040   -2.3310   -1.3770 c3        1 MOL      0.108769
    117 C38         2.5170   -2.8110   -2.1610 c3        1 MOL     -0.392974
    118 O18         3.8060   -0.9160   -1.3630 oh        1 MOL     -0.441346
    119 H53         1.9960   -1.5550    0.4930 hn        1 MOL      0.235021
    120 H54         3.8990   -3.7830    0.2320 h1        1 MOL      0.048017
    121 H55         4.5010   -2.8170   -1.9290 h1        1 MOL      0.023118
    122 H56         3.5790   -0.5820   -2.2330 ho        1 MOL      0.403476
    123 H57         2.7380   -2.7610   -3.2260 hc        1 MOL      0.119813
    124 H58         2.2670   -3.8290   -1.8400 hc        1 MOL      0.119813
    125 H59         1.7210   -2.0930   -1.9530 hc        1 MOL      0.119813
    126 N11         6.1560   -2.6490    0.5620 n         1 MOL     -0.377769
    127 C39         7.3220   -1.9610    1.1940 c3        1 MOL     -0.114421
    128 C40         7.5420   -0.5290    0.6770 c         1 MOL      0.277838
    129 O19         8.1550    0.2800    1.3320 o         1 MOL     -0.491051
    130 C41         8.5080   -2.7040    0.7300 c3        1 MOL      0.373468
    131 C42         8.5480   -4.0050    1.4740 c3        1 MOL     -0.356586
    132 O20         8.5420   -3.0280   -0.6630 oh        1 MOL     -0.665623
    133 H60         6.2900   -3.4290   -0.0630 hn        1 MOL      0.289090
    134 H61         7.2610   -1.8880    2.2790 h1        1 MOL      0.165089
    135 H62         9.4190   -2.1670    0.9620 h1        1 MOL      0.036299
    136 H63         9.3990   -3.3730   -0.9040 ho        1 MOL      0.373454
    137 H64         9.4880   -4.4990    1.2110 hc        1 MOL      0.097691
    138 H65         8.5370   -3.8330    2.5490 hc        1 MOL      0.097691
    139 H66         7.7100   -4.6210    1.1450 hc        1 MOL      0.097691
    140 N12         7.0200   -0.1990   -0.4930 n         1 MOL     -0.066408
    141 C43         7.1520    1.0600   -1.2030 c3        1 MOL     -0.113417
    142 C44         6.0070    2.0410   -0.9140 c         1 MOL      0.493068
    143 O21         6.2640    3.2100   -1.0800 o         1 MOL     -0.519381
    144 C45         7.3340    0.8070   -2.6470 c3        1 MOL     -0.040573
    145 C46         8.5870   -0.0970   -3.0730 c3        1 MOL      0.340058
    146 C47         8.8430   -0.0610   -4.5450 c3        1 MOL     -0.214502
    147 C48         9.9750   -1.0810   -4.8750 c3        1 MOL      0.010548
    148 N13         9.5290   -2.5070   -4.6350 n4        1 MOL     -0.417818
    149 H67         6.8220   -1.0290   -1.0420 hn        1 MOL      0.154340
    150 H68         8.0480    1.5560   -0.8340 h1        1 MOL      0.114912
    151 H69         7.4090    1.7820   -3.1120 hc        1 MOL      0.000020
    152 H70         6.4280    0.3310   -3.0250 hc        1 MOL      0.000020
    153 H71         8.3950   -1.1310   -2.7750 hc        1 MOL     -0.083078
    154 H72         9.5160    0.1140   -2.5320 hc        1 MOL     -0.083078
    155 H73         9.1990    0.9370   -4.7990 hc        1 MOL      0.086643
    156 H74         7.9030   -0.3140   -5.0250 hc        1 MOL      0.086643
    157 H75        10.8460   -0.8340   -4.2620 hx        1 MOL      0.114124
    158 H76        10.3890   -0.9840   -5.8730 hx        1 MOL      0.114124
    159 H77         9.5400   -2.8690   -3.6830 hn        1 MOL      0.293611
    160 H78         8.5720   -2.6300   -4.9190 hn        1 MOL      0.293611
    161 H79        10.1420   -3.1510   -5.1120 hn        1 MOL      0.293611
    162 N14         4.8860    1.5680   -0.3370 n         1 MOL     -0.043203
    163 C49         3.9310    2.5790    0.2510 c3        1 MOL     -0.270441
    164 C50         4.4080    2.9660    1.6980 c         1 MOL      0.558288
    165 O22         4.4000    4.1570    2.0310 o         1 MOL     -0.552067
    166 C51         2.5140    1.9150    0.3060 c3        1 MOL      0.081897
    167 C52         1.8300    1.7540   -1.0040 c3        1 MOL     -0.095642
    168 C53         0.4620    1.0440   -0.8660 c         1 MOL      0.880195
    169 O23         0.3780   -0.1240   -0.4390 o         1 MOL     -0.776918
    170 O24        -0.5470    1.6010   -1.2530 o         1 MOL     -0.776918
    171 H80         4.6080    0.6260   -0.5700 hn        1 MOL     -0.016451
    172 H81         3.8520    3.4850   -0.3440 h1        1 MOL      0.124076
    173 H82         2.0130    2.6980    0.8830 hc        1 MOL     -0.001239
    174 H83         2.5100    1.0080    0.9120 hc        1 MOL     -0.001239
    175 H84         2.3400    1.0990   -1.7170 hc        1 MOL     -0.013404
    176 H85         1.7060    2.7660   -1.3950 hc        1 MOL     -0.013404
    177 N15         4.9070    1.9330    2.4400 n         1 MOL     -0.213212
    178 C54         5.5460    2.1030    3.6880 c3        1 MOL     -0.201351
    179 H86         5.3980    1.2110    4.2960 h1        1 MOL      0.086806
    180 H87         6.6130    2.2630    3.5320 h1        1 MOL      0.086806
    181 H88         5.1200    2.9660    4.2000 h1        1 MOL      0.086806
    182 H89         4.8370    0.9910    2.0930 hn        1 MOL      0.216542
    183 Ca1        -2.0930   -0.7320   -1.3810 Ca        1 MOL      1.760805
    184 O25        -0.5000   -0.6340   -3.5640 oh        1 MOL     -0.864636
    185 H90        -0.9730    0.0020   -4.0910 ho        1 MOL      0.399992
    186 H91         0.2460   -0.8880   -4.1090 ho        1 MOL      0.399992
    187 O26        -1.0420   -3.2500   -1.7140 oh        1 MOL     -0.864636
    188 H92        -1.6490   -3.9950   -1.5800 ho        1 MOL      0.399992
    189 H93        -0.3940   -3.5910   -2.3250 ho        1 MOL      0.399992
@<TRIPOS>BOND
     1    1    2 1   
     2    1    4 1   
     3    1    5 1   
     4    1    6 1   
     5    2    3 2   
     6    2    7 1   
     7    7    8 1   
     8    7   15 1   
     9    8    9 1   
    10    8   11 1   
    11    8   16 1   
    12    9   10 2   
    13    9   19 1   
    14   11   12 1   
    15   11   17 1   
    16   11   18 1   
    17   12   13 1   
    18   12   14 1   
    19   19   20 1   
    20   19   28 1   
    21   20   21 1   
    22   20   23 1   
    23   20   29 1   
    24   21   22 2   
    25   21   41 1   
    26   23   24 1   
    27   23   30 1   
    28   23   31 1   
    29   24   25 1   
    30   24   32 1   
    31   24   33 1   
    32   25   26 1   
    33   25   34 1   
    34   25   35 1   
    35   26   27 1   
    36   26   36 1   
    37   26   37 1   
    38   27   38 1   
    39   27   39 1   
    40   27   40 1   
    41   41   42 1   
    42   41   49 1   
    43   42   43 1   
    44   42   45 1   
    45   42   50 1   
    46   43   44 2   
    47   43   53 1   
    48   45   46 1   
    49   45   51 1   
    50   45   52 1   
    51   46   47 1   
    52   46   48 1   
    53   53   54 1   
    54   53   57 1   
    55   54   55 1   
    56   54   58 1   
    57   54   59 1   
    58   55   56 2   
    59   55   60 1   
    60   60   61 1   
    61   60   68 1   
    62   61   62 1   
    63   61   64 1   
    64   61   69 1   
    65   62   63 2   
    66   62   72 1   
    67   64   65 1   
    68   64   70 1   
    69   64   71 1   
    70   65   66 1   
    71   65   67 1   
    72   72   73 1   
    73   72   76 1   
    74   73   74 1   
    75   73   77 1   
    76   73   78 1   
    77   74   75 2   
    78   74   79 1   
    79   79   80 1   
    80   79   86 1   
    81   80   81 1   
    82   80   83 1   
    83   80   87 1   
    84   81   82 2   
    85   81   93 1   
    86   83   84 1   
    87   83   85 1   
    88   83   88 1   
    89   84   90 1   
    90   84   91 1   
    91   84   92 1   
    92   85   89 1   
    93   93   94 1   
    94   93  101 1   
    95   94   95 1   
    96   94   97 1   
    97   94  102 1   
    98   95   96 2   
    99   95  112 1   
   100   97   98 1   
   101   97   99 1   
   102   97  103 1   
   103   98  100 1   
   104   98  104 1   
   105   98  105 1   
   106   99  106 1   
   107   99  107 1   
   108   99  108 1   
   109  100  109 1   
   110  100  110 1   
   111  100  111 1   
   112  112  113 1   
   113  112  119 1   
   114  113  114 1   
   115  113  116 1   
   116  113  120 1   
   117  114  115 2   
   118  114  126 1   
   119  116  117 1   
   120  116  118 1   
   121  116  121 1   
   122  117  123 1   
   123  117  124 1   
   124  117  125 1   
   125  118  122 1   
   126  126  127 1   
   127  126  133 1   
   128  127  128 1   
   129  127  130 1   
   130  127  134 1   
   131  128  129 2   
   132  128  140 1   
   133  130  131 1   
   134  130  132 1   
   135  130  135 1   
   136  131  137 1   
   137  131  138 1   
   138  131  139 1   
   139  132  136 1   
   140  140  141 1   
   141  140  149 1   
   142  141  142 1   
   143  141  144 1   
   144  141  150 1   
   145  142  143 2   
   146  142  162 1   
   147  144  145 1   
   148  144  151 1   
   149  144  152 1   
   150  145  146 1   
   151  145  153 1   
   152  145  154 1   
   153  146  147 1   
   154  146  155 1   
   155  146  156 1   
   156  147  148 1   
   157  147  157 1   
   158  147  158 1   
   159  148  159 1   
   160  148  160 1   
   161  148  161 1   
   162  162  163 1   
   163  162  171 1   
   164  163  164 1   
   165  163  166 1   
   166  163  172 1   
   167  164  165 2   
   168  164  177 1   
   169  166  167 1   
   170  166  173 1   
   171  166  174 1   
   172  167  168 1   
   173  167  175 1   
   174  167  176 1   
   175  168  169 1   
   176  168  170 1   
   177  177  178 1   
   178  177  182 1   
   179  178  179 1   
   180  178  180 1   
   181  178  181 1   
   182  184  185 1   
   183  184  186 1   
   184  187  188 1   
   185  187  189 1   
@<TRIPOS>SUBSTRUCTURE
     1 MOL         1 TEMP              0 ****  ****    0 ROOT
