@<TRIPOS>MOLECULE
MOL
  183   181     1     0     0
SMALL
resp


@<TRIPOS>ATOM
      1 C1         -0.4990    1.1910    6.3160 c3        1 MOL     -0.260418
      2 C2         -0.8870    1.5490    4.9470 c         1 MOL      0.797670
      3 O1         -0.0600    2.1510    4.2620 o         1 MOL     -0.576320
      4 H1         -0.8780    0.1970    6.5520 hc        1 MOL      0.054889
      5 H2          0.5870    1.1950    6.3990 hc        1 MOL      0.054889
      6 H3         -0.9200    1.9150    7.0140 hc        1 MOL      0.054889
      7 N1         -2.0960    1.2000    4.4590 n         1 MOL     -0.755354
      8 C3         -2.5980    1.5090    3.1260 c3        1 MOL      0.513308
      9 C4         -2.8390    2.9640    2.7900 c         1 MOL      0.290765
     10 O2         -3.2040    3.8410    3.6260 o         1 MOL     -0.581955
     11 C5         -3.9270    0.6560    2.8990 c3        1 MOL     -0.340052
     12 C6         -4.5180    0.5240    1.4450 c         1 MOL      0.902169
     13 O3         -5.5070   -0.2160    1.3410 o         1 MOL     -0.708952
     14 O4         -3.9250    0.8940    0.4630 o         1 MOL     -0.708952
     15 H4         -2.6980    0.6370    5.0340 hn        1 MOL      0.329842
     16 H5         -1.8150    1.1690    2.4520 h1        1 MOL     -0.030165
     17 H6         -4.6620    0.9350    3.6540 hc        1 MOL      0.050314
     18 H7         -3.6510   -0.3900    3.0620 hc        1 MOL      0.050314
     19 N2         -2.6360    3.2960    1.5190 n         1 MOL     -0.119587
     20 C7         -2.6790    4.7080    0.9830 c3        1 MOL     -0.036728
     21 C8         -3.6510    4.6720   -0.2770 c         1 MOL      0.380199
     22 O5         -4.1020    5.7290   -0.6520 o         1 MOL     -0.534884
     23 C9         -1.3640    5.4010    0.7080 c3        1 MOL      0.322504
     24 C10        -0.4850    5.3080    2.0190 c3        1 MOL      0.162258
     25 C11        -1.6130    6.9140    0.4010 c3        1 MOL     -0.431976
     26 C12         1.0040    5.4800    1.7150 c3        1 MOL     -0.087686
     27 H8         -2.2390    2.5440    0.9880 hn        1 MOL      0.086559
     28 H9         -3.1420    5.2580    1.8000 h1        1 MOL      0.063266
     29 H10        -0.8030    4.9210   -0.0980 hc        1 MOL     -0.019417
     30 H11        -0.5650    4.3220    2.4920 hc        1 MOL     -0.042805
     31 H12        -0.8440    6.0550    2.7170 hc        1 MOL     -0.042805
     32 H13        -2.1810    6.9180   -0.5290 hc        1 MOL      0.085868
     33 H14        -2.2620    7.4120    1.1170 hc        1 MOL      0.085868
     34 H15        -0.6930    7.5050    0.2940 hc        1 MOL      0.085868
     35 H16         1.2090    6.4690    1.2950 hc        1 MOL     -0.004044
     36 H17         1.5150    5.4540    2.6830 hc        1 MOL     -0.004044
     37 H18         1.3690    4.7020    1.0540 hc        1 MOL     -0.004044
     38 N3         -3.9830    3.4910   -0.8590 n         1 MOL      0.016227
     39 C13        -5.0000    3.3540   -1.8960 c3        1 MOL     -0.032869
     40 C14        -6.3950    3.0630   -1.3300 c         1 MOL      0.409725
     41 O6         -7.4220    3.3890   -1.9240 o         1 MOL     -0.513585
     42 C15        -4.6320    2.2700   -2.9220 c3        1 MOL     -0.100995
     43 C16        -3.1450    2.4550   -3.3110 c         1 MOL      0.601853
     44 O7         -2.8660    3.3220   -4.1930 o         1 MOL     -0.670764
     45 O8         -2.3260    1.7100   -2.7800 o         1 MOL     -0.670764
     46 H19        -3.7300    2.6380   -0.3850 hn        1 MOL     -0.026835
     47 H20        -5.0540    4.2600   -2.4950 h1        1 MOL      0.080751
     48 H21        -5.3610    2.2540   -3.7350 hc        1 MOL      0.032016
     49 H22        -4.7100    1.2970   -2.4220 hc        1 MOL      0.032016
     50 N4         -6.4470    2.3710   -0.1210 n         1 MOL     -0.325838
     51 C17        -7.6540    1.6320    0.3560 c3        1 MOL     -0.037571
     52 C18        -8.0390    0.3910   -0.4920 c         1 MOL      0.528572
     53 O9         -9.2380    0.0380   -0.4970 o         1 MOL     -0.598170
     54 H23        -5.5700    2.2770    0.3850 hn        1 MOL      0.169014
     55 H24        -8.6220    2.1370    0.4190 h1        1 MOL      0.056296
     56 H25        -7.3720    1.2870    1.3490 h1        1 MOL      0.056296
     57 N5         -7.0330   -0.3350   -1.1330 n         1 MOL     -0.207575
     58 C19        -7.2040   -1.6400   -1.8370 c3        1 MOL     -0.156663
     59 C20        -7.1600   -2.8380   -0.8910 c         1 MOL      0.425263
     60 O10        -7.3290   -4.0010   -1.3530 o         1 MOL     -0.557855
     61 C21        -6.1440   -1.5920   -2.9320 c3        1 MOL     -0.197191
     62 C22        -4.6920   -1.4050   -2.4230 c         1 MOL      0.591159
     63 O11        -3.8330   -0.9420   -3.1540 o         1 MOL     -0.650876
     64 O12        -4.3570   -1.6960   -1.2380 o         1 MOL     -0.650876
     65 H26        -6.0970   -0.1530   -0.7920 hn        1 MOL      0.170564
     66 H27        -8.1050   -1.6240   -2.4580 h1        1 MOL      0.145349
     67 H28        -6.4240   -0.7450   -3.5570 hc        1 MOL      0.077765
     68 H29        -6.2560   -2.4870   -3.5430 hc        1 MOL      0.077765
     69 N6         -7.0420   -2.6010    0.3790 n         1 MOL     -0.158350
     70 C23        -7.0240   -3.6350    1.3920 c3        1 MOL     -0.112362
     71 C24        -5.6880   -4.3800    1.3880 c         1 MOL      0.563663
     72 O13        -5.6080   -5.5110    1.8380 o         1 MOL     -0.599462
     73 H30        -6.6880   -1.7020    0.6830 hn        1 MOL      0.224708
     74 H31        -7.8870   -4.3030    1.3510 h1        1 MOL      0.065906
     75 H32        -7.1600   -3.0280    2.2820 h1        1 MOL      0.065906
     76 N7         -4.5950   -3.7660    0.9730 n         1 MOL     -0.207092
     77 C25        -3.2070   -4.3330    0.9770 c3        1 MOL     -0.114138
     78 C26        -2.1110   -3.2820    1.1970 c         1 MOL      0.727063
     79 O14        -2.3490   -2.0700    1.1830 o         1 MOL     -0.682555
     80 C27        -3.0740   -5.2460   -0.2660 c3        1 MOL     -0.199533
     81 C28        -3.5010   -4.7600   -1.6610 c3        1 MOL     -0.068837
     82 C29        -2.5730   -3.7890   -2.3240 c         1 MOL      0.625289
     83 N8         -2.4320   -3.7880   -3.6500 n         1 MOL     -0.735486
     84 O15        -1.9560   -2.9460   -1.6950 o         1 MOL     -0.598833
     85 H33        -4.6530   -2.8280    0.6060 hn        1 MOL      0.179843
     86 H34        -3.0670   -4.8700    1.9220 h1        1 MOL      0.055072
     87 H35        -3.7720   -6.0400   -0.0260 hc        1 MOL      0.081001
     88 H36        -2.0590   -5.6220   -0.3410 hc        1 MOL      0.081001
     89 H37        -4.4900   -4.3140   -1.6120 hc        1 MOL      0.045433
     90 H38        -3.4370   -5.6790   -2.2430 hc        1 MOL      0.045433
     91 H39        -2.9180   -4.4610   -4.2310 hn        1 MOL      0.339133
     92 H40        -1.7200   -3.2110   -4.0630 hn        1 MOL      0.339133
     93 N9         -0.9250   -3.8810    1.3490 n         1 MOL     -0.380957
     94 C30         0.2750   -3.1310    1.6290 c3        1 MOL     -0.028451
     95 C31         1.2570   -3.5330    0.5280 c         1 MOL      0.376938
     96 O16         1.6000   -4.7160    0.4170 o         1 MOL     -0.586892
     97 C32         0.7640   -3.3720    3.0530 c3        1 MOL      0.306619
     98 C33         2.0810   -2.6500    3.2900 c3        1 MOL     -0.270898
     99 C34        -0.3030   -2.7740    3.9980 c3        1 MOL     -0.270898
    100 H41        -0.9200   -4.8900    1.3650 hn        1 MOL      0.258412
    101 H42         0.0260   -2.0860    1.5080 h1        1 MOL      0.144910
    102 H43         0.7580   -4.4270    3.3060 hc        1 MOL     -0.033918
    103 H44         2.3490   -2.8470    4.3230 hc        1 MOL      0.048130
    104 H45         2.9020   -3.0120    2.6560 hc        1 MOL      0.048130
    105 H46         1.9710   -1.5860    3.0890 hc        1 MOL      0.048130
    106 H47        -1.2230   -3.3500    3.9290 hc        1 MOL      0.048130
    107 H48         0.0980   -2.8510    5.0140 hc        1 MOL      0.048130
    108 H49        -0.5500   -1.7280    3.7860 hc        1 MOL      0.048130
    109 N10         1.8560   -2.5980   -0.1850 n         1 MOL     -0.101848
    110 C35         2.9660   -2.7740   -1.1640 c3        1 MOL      0.165407
    111 C36         4.2440   -2.2490   -0.4900 c         1 MOL      0.528122
    112 O17         4.2150   -1.6870    0.6360 o         1 MOL     -0.479101
    113 C37         2.6000   -2.1640   -2.5700 c3        1 MOL     -0.415673
    114 C38         2.9540   -0.7060   -2.7210 c         1 MOL      0.552899
    115 N11         2.1620    0.1330   -2.1470 n         1 MOL     -0.557539
    116 O18         4.0790   -0.3400   -3.1070 o         1 MOL     -0.540618
    117 H50         1.4880   -1.6980    0.0800 hn        1 MOL     -0.007319
    118 H51         3.0770   -3.8430   -1.3640 h1        1 MOL      0.057095
    119 H52         1.5170   -2.1900   -2.7370 hc        1 MOL      0.122544
    120 H53         3.1160   -2.6790   -3.3880 hc        1 MOL      0.122544
    121 H54         1.2860   -0.2320   -1.7880 hn        1 MOL      0.345531
    122 H55         2.1840    1.0700   -2.5230 hn        1 MOL      0.345531
    123 N12         5.3840   -2.4500   -1.1230 n         1 MOL     -0.705261
    124 C39         6.6150   -1.9970   -0.4870 c3        1 MOL      0.415900
    125 C40         6.6280   -0.4680   -0.2350 c         1 MOL      0.606877
    126 O19         6.9970   -0.1200    0.8430 o         1 MOL     -0.532363
    127 C41         7.8580   -2.4130   -1.3380 c3        1 MOL     -0.168963
    128 C42         9.2240   -1.9860   -0.7930 ca        1 MOL     -0.000585
    129 C43         9.6340   -2.3200    0.5060 ca        1 MOL     -0.140920
    130 C44         9.9940   -1.1040   -1.5980 ca        1 MOL     -0.140920
    131 C45        10.8750   -1.7920    0.9470 ca        1 MOL     -0.285321
    132 C46        11.2070   -0.5430   -1.1260 ca        1 MOL     -0.285321
    133 C47        11.6710   -0.9200    0.1670 ca        1 MOL      0.383019
    134 O20        12.8840   -0.5270    0.6320 oh        1 MOL     -0.541276
    135 H56         5.4670   -2.9480   -2.0050 hn        1 MOL      0.333519
    136 H57         6.7240   -2.5100    0.4720 h1        1 MOL     -0.005171
    137 H58         7.7010   -1.8850   -2.2770 hc        1 MOL      0.048321
    138 H59         7.8730   -3.4850   -1.5160 hc        1 MOL      0.048321
    139 H60         9.0160   -2.9650    1.1230 ha        1 MOL      0.139951
    140 H61         9.6050   -0.7750   -2.5500 ha        1 MOL      0.139951
    141 H62        11.2600   -2.2000    1.8710 ha        1 MOL      0.146490
    142 H63        11.7270    0.2770   -1.5950 ha        1 MOL      0.146490
    143 H64        13.3230    0.1070    0.0620 ho        1 MOL      0.384689
    144 N13         6.1650    0.3500   -1.1520 n         1 MOL     -0.543948
    145 C48         6.1950    1.7730   -0.9390 c3        1 MOL      0.160244
    146 C49         5.3000    2.1240    0.2340 c         1 MOL      0.248183
    147 O21         5.6610    3.0840    0.9090 o         1 MOL     -0.527365
    148 C50         5.5890    2.5190   -2.1300 c3        1 MOL      0.196486
    149 C51         6.2410    2.2400   -3.4150 c3        1 MOL     -0.322582
    150 C52         5.6640    2.9840   -4.5960 c         1 MOL      0.787156
    151 O22         5.4740    2.4270   -5.6680 o         1 MOL     -0.755036
    152 O23         5.4210    4.2380   -4.5640 o         1 MOL     -0.755036
    153 H65         5.8110   -0.1120   -1.9850 hn        1 MOL      0.282438
    154 H66         7.1790    2.2340   -0.8530 h1        1 MOL      0.051868
    155 H67         5.5760    3.5990   -1.9680 hc        1 MOL     -0.045053
    156 H68         4.5940    2.0840   -2.1390 hc        1 MOL     -0.045053
    157 H69         6.1380    1.2030   -3.7430 hc        1 MOL      0.027587
    158 H70         7.2980    2.5010   -3.3150 hc        1 MOL      0.027587
    159 N14         4.3190    1.3230    0.6620 n         1 MOL     -0.064851
    160 C53         3.6200    1.6250    1.9840 c3        1 MOL     -0.106375
    161 C54         4.2660    1.0930    3.1660 c         1 MOL      0.441472
    162 O24         3.9300    1.5680    4.2660 o         1 MOL     -0.576277
    163 C55         2.1760    1.1010    1.8080 c3        1 MOL      0.195795
    164 C56         1.3520    1.8680    0.7970 c3        1 MOL      0.047957
    165 C57         0.1710    1.1100    0.2620 c         1 MOL      0.736642
    166 O25        -0.9490    1.6770    0.0510 o         1 MOL     -0.770498
    167 O26         0.2750   -0.1130   -0.0190 o         1 MOL     -0.770498
    168 H71         4.1720    0.4470    0.1800 hn        1 MOL      0.238816
    169 H72         3.4780    2.6890    2.1900 h1        1 MOL      0.106729
    170 H73         1.6240    1.1680    2.7390 hc        1 MOL     -0.003627
    171 H74         2.2430    0.0300    1.6130 hc        1 MOL     -0.003627
    172 H75         1.9790    2.0670   -0.0710 hc        1 MOL     -0.045569
    173 H76         0.9050    2.7350    1.2880 hc        1 MOL     -0.045569
    174 N15         5.1780    0.1340    3.0200 n         1 MOL     -0.018242
    175 C58         5.9220   -0.5350    4.1480 c3        1 MOL     -0.269730
    176 H77         5.5730   -0.1360    5.1000 h1        1 MOL      0.095885
    177 H78         5.7420   -1.6090    4.1170 h1        1 MOL      0.095885
    178 H79         6.9900   -0.3420    4.0450 h1        1 MOL      0.095885
    179 H80         5.4610   -0.1050    2.0790 hn        1 MOL      0.024570
    180 Ca1        -2.1990   -0.2900   -1.0330 Ca        1 MOL      1.812956
    181 O27        -0.7370   -0.4860   -3.2360 oh        1 MOL     -0.895887
    182 H81        -0.5990   -1.1520   -3.9070 ho        1 MOL      0.423323
    183 H82        -0.8360    0.3360   -3.7220 ho        1 MOL      0.423323
@<TRIPOS>BOND
     1    1    2 1   
     2    1    4 1   
     3    1    5 1   
     4    1    6 1   
     5    2    3 2   
     6    2    7 1   
     7    7    8 1   
     8    7   15 1   
     9    8    9 1   
    10    8   11 1   
    11    8   16 1   
    12    9   10 2   
    13    9   19 1   
    14   11   12 1   
    15   11   17 1   
    16   11   18 1   
    17   12   13 1   
    18   12   14 1   
    19   19   20 1   
    20   19   27 1   
    21   20   21 1   
    22   20   23 1   
    23   20   28 1   
    24   21   22 2   
    25   21   38 1   
    26   23   24 1   
    27   23   25 1   
    28   23   29 1   
    29   24   26 1   
    30   24   30 1   
    31   24   31 1   
    32   25   32 1   
    33   25   33 1   
    34   25   34 1   
    35   26   35 1   
    36   26   36 1   
    37   26   37 1   
    38   38   39 1   
    39   38   46 1   
    40   39   40 1   
    41   39   42 1   
    42   39   47 1   
    43   40   41 2   
    44   40   50 1   
    45   42   43 1   
    46   42   48 1   
    47   42   49 1   
    48   43   44 1   
    49   43   45 1   
    50   50   51 1   
    51   50   54 1   
    52   51   52 1   
    53   51   55 1   
    54   51   56 1   
    55   52   53 2   
    56   52   57 1   
    57   57   58 1   
    58   57   65 1   
    59   58   59 1   
    60   58   61 1   
    61   58   66 1   
    62   59   60 2   
    63   59   69 1   
    64   61   62 1   
    65   61   67 1   
    66   61   68 1   
    67   62   63 1   
    68   62   64 1   
    69   69   70 1   
    70   69   73 1   
    71   70   71 1   
    72   70   74 1   
    73   70   75 1   
    74   71   72 2   
    75   71   76 1   
    76   76   77 1   
    77   76   85 1   
    78   77   78 1   
    79   77   80 1   
    80   77   86 1   
    81   78   79 2   
    82   78   93 1   
    83   80   81 1   
    84   80   87 1   
    85   80   88 1   
    86   81   82 1   
    87   81   89 1   
    88   81   90 1   
    89   82   83 1   
    90   82   84 2   
    91   83   91 1   
    92   83   92 1   
    93   93   94 1   
    94   93  100 1   
    95   94   95 1   
    96   94   97 1   
    97   94  101 1   
    98   95   96 2   
    99   95  109 1   
   100   97   98 1   
   101   97   99 1   
   102   97  102 1   
   103   98  103 1   
   104   98  104 1   
   105   98  105 1   
   106   99  106 1   
   107   99  107 1   
   108   99  108 1   
   109  109  110 1   
   110  109  117 1   
   111  110  111 1   
   112  110  113 1   
   113  110  118 1   
   114  111  112 2   
   115  111  123 1   
   116  113  114 1   
   117  113  119 1   
   118  113  120 1   
   119  114  115 1   
   120  114  116 2   
   121  115  121 1   
   122  115  122 1   
   123  123  124 1   
   124  123  135 1   
   125  124  125 1   
   126  124  127 1   
   127  124  136 1   
   128  125  126 2   
   129  125  144 1   
   130  127  128 1   
   131  127  137 1   
   132  127  138 1   
   133  128  129 ar  
   134  128  130 ar  
   135  129  131 ar  
   136  129  139 1   
   137  130  132 ar  
   138  130  140 1   
   139  131  133 ar  
   140  131  141 1   
   141  132  133 ar  
   142  132  142 1   
   143  133  134 1   
   144  134  143 1   
   145  144  145 1   
   146  144  153 1   
   147  145  146 1   
   148  145  148 1   
   149  145  154 1   
   150  146  147 2   
   151  146  159 1   
   152  148  149 1   
   153  148  155 1   
   154  148  156 1   
   155  149  150 1   
   156  149  157 1   
   157  149  158 1   
   158  150  151 1   
   159  150  152 1   
   160  159  160 1   
   161  159  168 1   
   162  160  161 1   
   163  160  163 1   
   164  160  169 1   
   165  161  162 2   
   166  161  174 1   
   167  163  164 1   
   168  163  170 1   
   169  163  171 1   
   170  164  165 1   
   171  164  172 1   
   172  164  173 1   
   173  165  166 1   
   174  165  167 1   
   175  174  175 1   
   176  174  179 1   
   177  175  176 1   
   178  175  177 1   
   179  175  178 1   
   180  181  182 1   
   181  181  183 1   
@<TRIPOS>SUBSTRUCTURE
     1 MOL         1 TEMP              0 ****  ****    0 ROOT
