@<TRIPOS>MOLECULE
MOL
  183   181     1     0     0
SMALL
resp


@<TRIPOS>ATOM
      1 C1          0.7640   -2.2200    6.2430 c3        1 MOL     -0.329521
      2 C2          0.9990   -2.2810    4.6930 c         1 MOL      0.699422
      3 O1          0.1380   -2.5960    3.8850 o         1 MOL     -0.566364
      4 H1          1.2930   -3.0440    6.7240 hc        1 MOL      0.078133
      5 H2          1.1400   -1.2730    6.6310 hc        1 MOL      0.078133
      6 H3         -0.3020   -2.3010    6.4530 hc        1 MOL      0.078133
      7 N1          2.1830   -1.8470    4.2690 n         1 MOL     -0.647718
      8 C3          2.6430   -1.7420    2.9100 c3        1 MOL      0.040830
      9 C4          3.1440   -3.1900    2.4630 c         1 MOL      0.720978
     10 O2          4.1910   -3.6130    2.8420 o         1 MOL     -0.578513
     11 C5          3.6880   -0.6430    2.8480 c3        1 MOL     -0.194974
     12 C6          4.3110   -0.4150    1.4100 c         1 MOL      0.761976
     13 O3          5.3510    0.2430    1.3310 o         1 MOL     -0.712619
     14 O4          3.8450   -0.9610    0.4570 o         1 MOL     -0.712619
     15 H4          2.8200   -1.4570    4.9510 hn        1 MOL      0.338861
     16 H5          1.8180   -1.5440    2.2210 h1        1 MOL      0.069372
     17 H6          4.4480   -1.0080    3.5250 hc        1 MOL      0.039218
     18 H7          3.3020    0.2760    3.3020 hc        1 MOL      0.039218
     19 N2          2.4240   -3.8620    1.5740 n         1 MOL     -0.447505
     20 C7          2.6070   -5.1910    1.0420 c3        1 MOL     -0.135015
     21 C8          3.7270   -5.2480   -0.0390 c         1 MOL      0.479075
     22 O5          4.4420   -6.2100   -0.0820 o         1 MOL     -0.554921
     23 C9          1.2370   -5.6800    0.5540 c3        1 MOL      0.226909
     24 C10         0.2880   -5.7560    1.7420 c3        1 MOL      0.170422
     25 C11         1.2890   -7.0140   -0.1990 c3        1 MOL     -0.274795
     26 C12        -1.1220   -6.0170    1.3730 c3        1 MOL     -0.214730
     27 H8          1.7010   -3.4060    1.0370 hn        1 MOL      0.187323
     28 H9          2.9190   -5.8210    1.8830 h1        1 MOL      0.080795
     29 H10         0.8430   -4.9850   -0.1770 hc        1 MOL     -0.021581
     30 H11         0.2330   -4.8270    2.3190 hc        1 MOL     -0.036473
     31 H12         0.6330   -6.5730    2.3900 hc        1 MOL     -0.036473
     32 H13         0.3330   -7.2990   -0.6400 hc        1 MOL      0.056004
     33 H14         1.9440   -6.8390   -1.0450 hc        1 MOL      0.056004
     34 H15         1.6120   -7.8650    0.4050 hc        1 MOL      0.056004
     35 H16        -1.2390   -7.0530    1.0760 hc        1 MOL      0.037418
     36 H17        -1.7020   -5.7630    2.2690 hc        1 MOL      0.037418
     37 H18        -1.4530   -5.4080    0.5380 hc        1 MOL      0.037418
     38 N3          3.6920   -4.2740   -0.9570 n         1 MOL     -0.145851
     39 C13         4.6050   -4.2050   -2.1040 c3        1 MOL     -0.082415
     40 C14         5.9070   -3.5800   -1.6700 c         1 MOL      0.442608
     41 O6          6.8990   -3.8800   -2.3430 o         1 MOL     -0.564339
     42 C15         4.0040   -3.4920   -3.3250 c3        1 MOL     -0.189268
     43 C16         3.4570   -2.0930   -3.0690 c         1 MOL      0.833359
     44 O7          2.2640   -1.8730   -2.9760 o         1 MOL     -0.767914
     45 O8          4.1870   -1.1240   -2.9680 o         1 MOL     -0.767914
     46 H19         2.9380   -3.6080   -0.8270 hn        1 MOL      0.129977
     47 H20         4.7950   -5.2550   -2.3270 h1        1 MOL      0.103489
     48 H21         3.2720   -4.1180   -3.8300 hc        1 MOL      0.053350
     49 H22         4.7380   -3.4150   -4.1370 hc        1 MOL      0.053350
     50 N4          5.8970   -2.7640   -0.5860 n         1 MOL     -0.060229
     51 C17         7.0210   -2.1530    0.0190 c3        1 MOL     -0.441343
     52 C18         7.4810   -0.8250   -0.5020 c         1 MOL      0.723181
     53 O9          8.4940   -0.2770   -0.0780 o         1 MOL     -0.633328
     54 H23         4.9860   -2.5060   -0.2330 hn        1 MOL      0.189007
     55 H24         7.8790   -2.8120   -0.0440 h1        1 MOL      0.145642
     56 H25         6.7190   -1.9920    1.0640 h1        1 MOL      0.145642
     57 N5          6.7260   -0.2430   -1.4990 n         1 MOL     -0.406196
     58 C19         7.2900    0.9780   -2.1760 c3        1 MOL     -0.058784
     59 C20         7.4870    2.2610   -1.2730 c         1 MOL      0.489587
     60 O10         8.0760    3.2050   -1.7400 o         1 MOL     -0.590163
     61 C21         6.3280    1.3870   -3.3090 c3        1 MOL     -0.115381
     62 C22         4.9300    1.9190   -2.8880 c         1 MOL      0.676425
     63 O11         4.2750    2.6440   -3.7170 o         1 MOL     -0.729741
     64 O12         4.3550    1.6700   -1.7900 o         1 MOL     -0.729741
     65 H26         5.9490   -0.7340   -1.9180 hn        1 MOL      0.262183
     66 H27         8.2720    0.8240   -2.6070 h1        1 MOL      0.072800
     67 H28         6.1430    0.6200   -4.0590 hc        1 MOL      0.053331
     68 H29         6.8170    2.1070   -3.9540 hc        1 MOL      0.053331
     69 N6          6.9700    2.3300   -0.0280 n         1 MOL     -0.118737
     70 C23         7.0820    3.4550    0.9100 c3        1 MOL     -0.278856
     71 C24         5.6970    4.0680    1.2420 c         1 MOL      0.618343
     72 O13         5.7680    4.8730    2.1670 o         1 MOL     -0.599176
     73 H30         6.3760    1.5660    0.2580 hn        1 MOL      0.243752
     74 H31         7.7030    4.1860    0.4050 h1        1 MOL      0.113372
     75 H32         7.5450    3.0690    1.8140 h1        1 MOL      0.113372
     76 N7          4.5390    3.6390    0.6980 n         1 MOL     -0.331874
     77 C25         3.2790    4.1600    1.0460 c3        1 MOL      0.002741
     78 C26         2.1380    3.1650    1.0180 c         1 MOL      0.622294
     79 O14         2.1660    2.1860    0.3190 o         1 MOL     -0.665575
     80 C27         2.8770    5.3790    0.1810 c3        1 MOL     -0.055055
     81 C28         3.5820    6.7220    0.5420 c3        1 MOL     -0.045576
     82 C29         3.1690    7.8580   -0.3120 c         1 MOL      0.547617
     83 N8          3.7400    7.8920   -1.4880 n         1 MOL     -0.739577
     84 O15         2.2780    8.5980    0.0270 o         1 MOL     -0.571186
     85 H33         4.5330    3.0060   -0.0830 hn        1 MOL      0.223081
     86 H34         3.3790    4.4290    2.0980 h1        1 MOL      0.047193
     87 H35         1.8180    5.6040    0.2570 hc        1 MOL      0.050582
     88 H36         3.0580    5.1170   -0.8660 hc        1 MOL      0.050582
     89 H37         4.6640    6.6070    0.4810 hc        1 MOL      0.021460
     90 H38         3.4560    6.9440    1.6080 hc        1 MOL      0.021460
     91 H39         4.5870    7.3600   -1.6110 hn        1 MOL      0.356275
     92 H40         3.3090    8.5850   -2.1010 hn        1 MOL      0.356275
     93 N9          1.1430    3.4850    1.7600 n         1 MOL     -0.360645
     94 C30        -0.1140    2.6820    1.8590 c3        1 MOL      0.027761
     95 C31        -1.2650    3.3430    1.0640 c         1 MOL      0.327444
     96 O16        -1.6630    4.4510    1.1660 o         1 MOL     -0.512160
     97 C32        -0.5310    2.5230    3.3790 c3        1 MOL      0.082826
     98 C33        -1.9660    1.8570    3.4960 c3        1 MOL     -0.175680
     99 C34         0.4710    1.6310    4.0410 c3        1 MOL     -0.175680
    100 H41         1.1000    4.3810    2.2400 hn        1 MOL      0.246684
    101 H42        -0.0290    1.6930    1.4090 h1        1 MOL      0.153324
    102 H43        -0.5820    3.4320    3.9810 hc        1 MOL      0.026460
    103 H44        -2.2960    1.7640    4.5250 hc        1 MOL      0.040076
    104 H45        -2.7850    2.4060    3.0340 hc        1 MOL      0.040076
    105 H46        -1.8950    0.8670    3.0490 hc        1 MOL      0.040076
    106 H47         0.2100    1.6840    5.1070 hc        1 MOL      0.040076
    107 H48         0.3630    0.6090    3.6790 hc        1 MOL      0.040076
    108 H49         1.4810    2.0200    3.9380 hc        1 MOL      0.040076
    109 N10        -1.7390    2.4720    0.1260 n         1 MOL     -0.068206
    110 C35        -2.9500    2.7230   -0.7540 c3        1 MOL      0.022033
    111 C36        -4.1770    2.1080   -0.0930 c         1 MOL      0.421842
    112 O17        -4.1220    1.3600    0.8320 o         1 MOL     -0.249345
    113 C37        -2.6220    2.1510   -2.1360 c3        1 MOL     -0.007262
    114 C38        -3.1880    0.8280   -2.4340 c         1 MOL      0.433402
    115 N11        -2.5730   -0.2360   -1.9430 n         1 MOL     -0.327525
    116 O18        -4.0330    0.5790   -3.2690 o         1 MOL     -0.498426
    117 H50        -1.3420    1.5430    0.0730 hn        1 MOL     -0.081754
    118 H51        -3.0220    3.8100   -0.7590 h1        1 MOL      0.076805
    119 H52        -1.5400    2.2160   -2.3090 hc        1 MOL      0.018165
    120 H53        -3.0480    2.8550   -2.8430 hc        1 MOL      0.018165
    121 H54        -1.7390   -0.1100   -1.3890 hn        1 MOL      0.252891
    122 H55        -2.7440   -1.1740   -2.2550 hn        1 MOL      0.252891
    123 N12        -5.3170    2.2540   -0.7830 n         1 MOL     -0.632068
    124 C39        -6.6210    1.8650   -0.2180 c3        1 MOL      0.391470
    125 C40        -6.6820    0.3840   -0.0550 c         1 MOL      0.468076
    126 O19        -7.2330   -0.1550    0.8690 o         1 MOL     -0.523519
    127 C41        -7.7900    2.3960   -1.0030 c3        1 MOL     -0.211598
    128 C42        -9.1760    2.1620   -0.4440 ca        1 MOL      0.163767
    129 C43        -9.6260    2.6840    0.8090 ca        1 MOL     -0.307171
    130 C44       -10.1220    1.4360   -1.2370 ca        1 MOL     -0.307171
    131 C45       -10.9350    2.4180    1.1880 ca        1 MOL     -0.099259
    132 C46       -11.4590    1.1310   -0.7710 ca        1 MOL     -0.099259
    133 C47       -11.9040    1.7190    0.4330 ca        1 MOL      0.197982
    134 O20       -13.2140    1.5520    0.8120 oh        1 MOL     -0.500871
    135 H56        -5.3080    2.7710   -1.6460 hn        1 MOL      0.300270
    136 H57        -6.6720    2.2500    0.8040 h1        1 MOL     -0.007505
    137 H58        -7.7610    2.1170   -2.0560 hc        1 MOL      0.069546
    138 H59        -7.6550    3.4780   -1.0160 hc        1 MOL      0.069546
    139 H60        -8.9530    3.2190    1.4620 ha        1 MOL      0.169951
    140 H61        -9.8430    1.0700   -2.2190 ha        1 MOL      0.169951
    141 H62       -11.2880    2.8320    2.1190 ha        1 MOL      0.110189
    142 H63       -12.0360    0.5240   -1.4530 ha        1 MOL      0.110189
    143 H64       -13.7310    1.1330    0.1160 ho        1 MOL      0.372459
    144 N13        -6.1530   -0.3110   -1.0310 n         1 MOL     -0.326963
    145 C48        -6.1520   -1.7500   -1.1690 c3        1 MOL      0.077513
    146 C49        -5.2590   -2.4110   -0.0850 c         1 MOL      0.305052
    147 O21        -5.4880   -3.5130    0.4230 o         1 MOL     -0.527823
    148 C50        -5.7260   -2.2720   -2.5600 c3        1 MOL      0.096234
    149 C51        -6.9490   -2.3450   -3.5360 c3        1 MOL     -0.217389
    150 C52        -6.6160   -2.4800   -4.9800 c         1 MOL      0.716068
    151 O22        -5.6280   -1.9380   -5.5350 o         1 MOL     -0.743007
    152 O23        -7.4880   -3.0240   -5.7070 o         1 MOL     -0.743007
    153 H65        -5.8750    0.2480   -1.8320 hn        1 MOL      0.246086
    154 H66        -7.1730   -1.9830   -0.8700 h1        1 MOL      0.061160
    155 H67        -5.3360   -3.2830   -2.4540 hc        1 MOL      0.009398
    156 H68        -4.9550   -1.6270   -2.9930 hc        1 MOL      0.009398
    157 H69        -7.4840   -1.4050   -3.4090 hc        1 MOL      0.013056
    158 H70        -7.5860   -3.1820   -3.2550 hc        1 MOL      0.013056
    159 N14        -4.1710   -1.7410    0.3230 n         1 MOL      0.167528
    160 C53        -3.4070   -2.1510    1.4730 c3        1 MOL     -0.073175
    161 C54        -4.0520   -1.7520    2.8340 c         1 MOL      0.489442
    162 O24        -3.9920   -2.4390    3.7920 o         1 MOL     -0.544616
    163 C55        -2.0350   -1.5450    1.3560 c3        1 MOL      0.127900
    164 C56        -1.0340   -2.2850    0.4510 c3        1 MOL      0.008182
    165 C57         0.0470   -1.3310   -0.0720 c         1 MOL      0.410201
    166 O25         1.2210   -1.7590   -0.2040 o         1 MOL     -0.570240
    167 O26        -0.2040   -0.1480   -0.5230 o         1 MOL     -0.570240
    168 H71        -3.9700   -0.8500   -0.1100 hn        1 MOL     -0.470395
    169 H72        -3.2940   -3.2260    1.4260 h1        1 MOL      0.055122
    170 H73        -1.7060   -1.5170    2.3920 hc        1 MOL      0.034895
    171 H74        -2.0800   -0.4880    1.0910 hc        1 MOL      0.034895
    172 H75        -1.6310   -2.7410   -0.3330 hc        1 MOL      0.044169
    173 H76        -0.6700   -3.1770    0.9570 hc        1 MOL      0.044169
    174 N15        -4.6550   -0.5350    2.8780 n         1 MOL     -0.058252
    175 C58        -5.2650   -0.1150    4.1110 c3        1 MOL     -0.204069
    176 H77        -4.9810   -0.8020    4.9090 h1        1 MOL      0.066300
    177 H78        -4.9260    0.8900    4.3610 h1        1 MOL      0.066300
    178 H79        -6.3490   -0.1160    4.0000 h1        1 MOL      0.066300
    179 H80        -4.6400    0.1110    2.1020 hn        1 MOL      0.074602
    180 Ca1         2.3500    0.1890   -1.3740 Ca        1 MOL      1.736118
    181 O27         0.8920    1.3890   -3.1570 oh        1 MOL     -0.879117
    182 H81         0.2600    1.2950   -3.8720 ho        1 MOL      0.436513
    183 H82         1.2250    2.2770   -3.2450 ho        1 MOL      0.436513
@<TRIPOS>BOND
     1    1    2 1   
     2    1    4 1   
     3    1    5 1   
     4    1    6 1   
     5    2    3 2   
     6    2    7 1   
     7    7    8 1   
     8    7   15 1   
     9    8    9 1   
    10    8   11 1   
    11    8   16 1   
    12    9   10 2   
    13    9   19 1   
    14   11   12 1   
    15   11   17 1   
    16   11   18 1   
    17   12   13 1   
    18   12   14 1   
    19   19   20 1   
    20   19   27 1   
    21   20   21 1   
    22   20   23 1   
    23   20   28 1   
    24   21   22 2   
    25   21   38 1   
    26   23   24 1   
    27   23   25 1   
    28   23   29 1   
    29   24   26 1   
    30   24   30 1   
    31   24   31 1   
    32   25   32 1   
    33   25   33 1   
    34   25   34 1   
    35   26   35 1   
    36   26   36 1   
    37   26   37 1   
    38   38   39 1   
    39   38   46 1   
    40   39   40 1   
    41   39   42 1   
    42   39   47 1   
    43   40   41 2   
    44   40   50 1   
    45   42   43 1   
    46   42   48 1   
    47   42   49 1   
    48   43   44 1   
    49   43   45 1   
    50   50   51 1   
    51   50   54 1   
    52   51   52 1   
    53   51   55 1   
    54   51   56 1   
    55   52   53 2   
    56   52   57 1   
    57   57   58 1   
    58   57   65 1   
    59   58   59 1   
    60   58   61 1   
    61   58   66 1   
    62   59   60 2   
    63   59   69 1   
    64   61   62 1   
    65   61   67 1   
    66   61   68 1   
    67   62   63 1   
    68   62   64 1   
    69   69   70 1   
    70   69   73 1   
    71   70   71 1   
    72   70   74 1   
    73   70   75 1   
    74   71   72 2   
    75   71   76 1   
    76   76   77 1   
    77   76   85 1   
    78   77   78 1   
    79   77   80 1   
    80   77   86 1   
    81   78   79 2   
    82   78   93 1   
    83   80   81 1   
    84   80   87 1   
    85   80   88 1   
    86   81   82 1   
    87   81   89 1   
    88   81   90 1   
    89   82   83 1   
    90   82   84 2   
    91   83   91 1   
    92   83   92 1   
    93   93   94 1   
    94   93  100 1   
    95   94   95 1   
    96   94   97 1   
    97   94  101 1   
    98   95   96 2   
    99   95  109 1   
   100   97   98 1   
   101   97   99 1   
   102   97  102 1   
   103   98  103 1   
   104   98  104 1   
   105   98  105 1   
   106   99  106 1   
   107   99  107 1   
   108   99  108 1   
   109  109  110 1   
   110  109  117 1   
   111  110  111 1   
   112  110  113 1   
   113  110  118 1   
   114  111  112 2   
   115  111  123 1   
   116  113  114 1   
   117  113  119 1   
   118  113  120 1   
   119  114  115 1   
   120  114  116 2   
   121  115  121 1   
   122  115  122 1   
   123  123  124 1   
   124  123  135 1   
   125  124  125 1   
   126  124  127 1   
   127  124  136 1   
   128  125  126 2   
   129  125  144 1   
   130  127  128 1   
   131  127  137 1   
   132  127  138 1   
   133  128  129 ar  
   134  128  130 ar  
   135  129  131 ar  
   136  129  139 1   
   137  130  132 ar  
   138  130  140 1   
   139  131  133 ar  
   140  131  141 1   
   141  132  133 ar  
   142  132  142 1   
   143  133  134 1   
   144  134  143 1   
   145  144  145 1   
   146  144  153 1   
   147  145  146 1   
   148  145  148 1   
   149  145  154 1   
   150  146  147 2   
   151  146  159 1   
   152  148  149 1   
   153  148  155 1   
   154  148  156 1   
   155  149  150 1   
   156  149  157 1   
   157  149  158 1   
   158  150  151 1   
   159  150  152 1   
   160  159  160 1   
   161  159  168 1   
   162  160  161 1   
   163  160  163 1   
   164  160  169 1   
   165  161  162 2   
   166  161  174 1   
   167  163  164 1   
   168  163  170 1   
   169  163  171 1   
   170  164  165 1   
   171  164  172 1   
   172  164  173 1   
   173  165  166 1   
   174  165  167 1   
   175  174  175 1   
   176  174  179 1   
   177  175  176 1   
   178  175  177 1   
   179  175  178 1   
   180  181  182 1   
   181  181  183 1   
@<TRIPOS>SUBSTRUCTURE
     1 MOL         1 TEMP              0 ****  ****    0 ROOT
