@<TRIPOS>MOLECULE
MOL
  189   185     1     0     0
SMALL
resp


@<TRIPOS>ATOM
      1 C1          0.7580    1.3030    5.8720 c3        1 MOL     -0.231314
      2 C2         -0.1110    1.6060    4.6610 c         1 MOL      0.658941
      3 O1          0.4940    2.2790    3.7760 o         1 MOL     -0.632865
      4 H1          1.7040    0.8750    5.5410 hc        1 MOL      0.059210
      5 H2          0.9490    2.2240    6.4210 hc        1 MOL      0.059210
      6 H3          0.2440    0.5920    6.5190 hc        1 MOL      0.059210
      7 N1         -1.3420    1.1510    4.5610 n         1 MOL     -0.547985
      8 C3         -2.0520    1.2700    3.2430 c3        1 MOL      0.115154
      9 C4         -2.3910    2.7220    2.8560 c         1 MOL      0.564838
     10 O2         -3.2030    3.3460    3.4850 o         1 MOL     -0.542085
     11 C5         -3.3390    0.4200    3.2390 c3        1 MOL     -0.313370
     12 C6         -3.9390    0.1660    1.8700 c         1 MOL      0.769458
     13 O3         -5.0260   -0.4760    1.8450 o         1 MOL     -0.700926
     14 O4         -3.3290    0.4170    0.8040 o         1 MOL     -0.700926
     15 H4         -1.6970    0.5730    5.3070 hn        1 MOL      0.344153
     16 H5         -1.3870    0.9260    2.4550 h1        1 MOL      0.030196
     17 H6         -3.9930    0.9010    3.9650 hc        1 MOL      0.085415
     18 H7         -3.1600   -0.6200    3.5440 hc        1 MOL      0.085415
     19 N2         -1.6380    3.2290    1.8540 n         1 MOL     -0.262358
     20 C7         -1.5160    4.6720    1.4080 c3        1 MOL     -0.193735
     21 C8         -2.5240    5.2470    0.4200 c         1 MOL      0.516465
     22 O5         -3.0060    6.3980    0.6400 o         1 MOL     -0.564184
     23 C9         -0.0360    4.8450    0.9290 c3        1 MOL     -0.018460
     24 C10         0.4990    6.3030    0.7020 c3        1 MOL     -0.040415
     25 C11         1.8910    6.3050    0.0710 c3        1 MOL     -0.103795
     26 C12         2.9660    5.6990    0.9910 c3        1 MOL      0.025438
     27 N3          3.1360    6.4630    2.2060 n4        1 MOL     -0.458361
     28 H8         -1.0720    2.5350    1.3800 hn        1 MOL      0.205782
     29 H9         -1.7660    5.1880    2.3350 h1        1 MOL      0.117729
     30 H10        -0.0530    4.4040   -0.0730 hc        1 MOL      0.093517
     31 H11         0.5800    4.3470    1.6690 hc        1 MOL      0.093517
     32 H12         0.4510    6.7730    1.6900 hc        1 MOL      0.028281
     33 H13        -0.1780    6.8130    0.0170 hc        1 MOL      0.028281
     34 H14         2.1600    7.2920   -0.3140 hc        1 MOL      0.053396
     35 H15         1.9000    5.6200   -0.7820 hc        1 MOL      0.053396
     36 H16         3.9070    5.6250    0.4630 hx        1 MOL      0.087852
     37 H17         2.6770    4.6760    1.2310 hx        1 MOL      0.087852
     38 H18         3.7810    5.9630    2.8060 hn        1 MOL      0.360086
     39 H19         3.4500    7.4020    1.9940 hn        1 MOL      0.360086
     40 H20         2.3560    6.4530    2.8530 hn        1 MOL      0.360086
     41 N4         -2.9040    4.4210   -0.5710 n         1 MOL     -0.246469
     42 C13        -3.9990    4.6230   -1.5360 c3        1 MOL      0.020467
     43 C14        -5.2540    3.8330   -1.0590 c         1 MOL      0.457812
     44 O6         -6.2780    3.9880   -1.6830 o         1 MOL     -0.528023
     45 C15        -3.5410    4.1520   -2.8980 c3        1 MOL     -0.169186
     46 C16        -2.7850    2.8750   -2.9900 c         1 MOL      0.803690
     47 O7         -2.0840    2.7060   -4.0160 o         1 MOL     -0.726432
     48 O8         -3.0290    1.9310   -2.2320 o         1 MOL     -0.726432
     49 H21        -2.5030    3.4990   -0.5800 hn        1 MOL      0.113717
     50 H22        -4.3610    5.6450   -1.5110 h1        1 MOL      0.092411
     51 H23        -2.8320    4.9350   -3.1570 hc        1 MOL      0.046002
     52 H24        -4.3370    4.2240   -3.6400 hc        1 MOL      0.046002
     53 N5         -5.1560    3.0290   -0.0050 n         1 MOL     -0.215570
     54 C17        -6.3610    2.4550    0.6480 c3        1 MOL     -0.065522
     55 C18        -7.0720    1.3210   -0.1460 c         1 MOL      0.528122
     56 O9         -8.2980    1.3000   -0.2170 o         1 MOL     -0.596910
     57 H25        -4.3250    3.0010    0.5550 hn        1 MOL      0.195488
     58 H26        -7.0700    3.2220    0.9720 h1        1 MOL      0.060186
     59 H27        -6.0250    1.8910    1.5190 h1        1 MOL      0.060186
     60 N6         -6.3690    0.4900   -0.8550 n         1 MOL     -0.124336
     61 C19        -6.9310   -0.5370   -1.7700 c3        1 MOL     -0.191706
     62 C20        -7.1090   -1.9030   -1.1410 c         1 MOL      0.425865
     63 O10        -7.5060   -2.8990   -1.7990 o         1 MOL     -0.553105
     64 C21        -6.0410   -0.6450   -3.0340 c3        1 MOL     -0.131125
     65 C22        -4.6440   -1.1990   -2.7890 c         1 MOL      0.700205
     66 O11        -3.7970   -1.2030   -3.6770 o         1 MOL     -0.700266
     67 O12        -4.2670   -1.4540   -1.6310 o         1 MOL     -0.700266
     68 H28        -5.4020    0.7570   -0.9050 hn        1 MOL      0.142220
     69 H29        -7.9340   -0.2270   -2.0600 h1        1 MOL      0.162792
     70 H30        -5.9240    0.3480   -3.4710 hc        1 MOL      0.074365
     71 H31        -6.5470   -1.1340   -3.8710 hc        1 MOL      0.074365
     72 N7         -6.8470   -1.9680    0.1320 n         1 MOL     -0.162404
     73 C23        -6.9360   -3.1300    0.9610 c3        1 MOL     -0.245380
     74 C24        -5.7130   -4.0180    0.8320 c         1 MOL      0.583485
     75 O13        -5.8180   -5.1700    1.2170 o         1 MOL     -0.572149
     76 H32        -6.3810   -1.1200    0.4280 hn        1 MOL      0.214156
     77 H33        -7.8710   -3.6290    0.7200 h1        1 MOL      0.120539
     78 H34        -7.0490   -2.6950    1.9530 h1        1 MOL      0.120539
     79 N8         -4.6500   -3.6140    0.1230 n         1 MOL     -0.120992
     80 C25        -3.4410   -4.4140    0.0110 c3        1 MOL     -0.477719
     81 C26        -2.1740   -3.6150    0.3730 c         1 MOL      0.927149
     82 O14        -2.0690   -2.4300    0.0370 o         1 MOL     -0.727600
     83 C27        -3.2420   -5.0430   -1.3800 c3        1 MOL      0.446405
     84 C28        -4.1600   -6.2700   -1.6260 c3        1 MOL     -0.453765
     85 O15        -3.6610   -4.1530   -2.3920 oh        1 MOL     -0.598741
     86 H35        -4.5580   -2.7020   -0.2930 hn        1 MOL      0.196911
     87 H36        -3.4550   -5.2390    0.7250 h1        1 MOL      0.149883
     88 H37        -2.1800   -5.2100   -1.5890 h1        1 MOL      0.009288
     89 H38        -4.0430   -3.3540   -2.0240 ho        1 MOL      0.400843
     90 H39        -3.8120   -7.1300   -1.0420 hc        1 MOL      0.122629
     91 H40        -5.1740   -5.9910   -1.3350 hc        1 MOL      0.122629
     92 H41        -4.1220   -6.5560   -2.6700 hc        1 MOL      0.122629
     93 N9         -1.1800   -4.3020    1.0270 n         1 MOL     -0.800102
     94 C29         0.1170   -3.6700    1.2970 c3        1 MOL      0.084895
     95 C30         1.2160   -3.9810    0.2280 c         1 MOL      0.628489
     96 O16         1.5630   -5.1280   -0.0110 o         1 MOL     -0.582865
     97 C31         0.6930   -3.8860    2.7510 c3        1 MOL      0.400990
     98 C32        -0.3660   -3.3530    3.7580 c3        1 MOL      0.019346
     99 C33         1.9950   -3.0810    2.9340 c3        1 MOL     -0.562739
    100 C34        -0.0530   -3.8100    5.2260 c3        1 MOL     -0.167507
    101 H42        -1.4000   -5.2530    1.2920 hn        1 MOL      0.365248
    102 H43        -0.0330   -2.5990    1.2500 h1        1 MOL      0.053421
    103 H44         0.8890   -4.9540    2.8470 hc        1 MOL     -0.048523
    104 H45        -1.3240   -3.8200    3.5210 hc        1 MOL      0.006000
    105 H46        -0.5110   -2.2780    3.8160 hc        1 MOL      0.006000
    106 H47         2.7130   -3.5450    2.2520 hc        1 MOL      0.111593
    107 H48         1.8700   -2.0700    2.5580 hc        1 MOL      0.111593
    108 H49         2.3860   -3.1500    3.9470 hc        1 MOL      0.111593
    109 H50        -0.4600   -4.8020    5.4140 hc        1 MOL      0.031742
    110 H51         1.0010   -3.8910    5.4470 hc        1 MOL      0.031742
    111 H52        -0.5310   -3.1540    5.9630 hc        1 MOL      0.031742
    112 N10         1.9600   -2.9420   -0.2410 n         1 MOL     -0.277667
    113 C35         3.1400   -3.1140   -1.1460 c3        1 MOL     -0.073225
    114 C36         4.4920   -3.1240   -0.3610 c         1 MOL      0.410062
    115 O17         4.5690   -2.4910    0.7520 o         1 MOL     -0.428990
    116 C37         3.1730   -2.0530   -2.2310 c3        1 MOL      0.157170
    117 C38         1.9220   -1.9450   -3.1250 c3        1 MOL     -0.344935
    118 O18         3.2460   -0.7860   -1.5330 oh        1 MOL     -0.547920
    119 H53         1.6410   -2.0220    0.0060 hn        1 MOL      0.177272
    120 H54         3.0780   -4.0230   -1.7460 h1        1 MOL      0.094555
    121 H55         4.0570   -2.1700   -2.8470 h1        1 MOL      0.072341
    122 H56         2.3810   -0.4590   -1.2630 ho        1 MOL      0.376250
    123 H57         1.6520   -2.9100   -3.5610 hc        1 MOL      0.111609
    124 H58         1.0650   -1.5670   -2.5740 hc        1 MOL      0.111609
    125 H59         2.0710   -1.2140   -3.9110 hc        1 MOL      0.111609
    126 N11         5.6270   -3.5360   -0.9300 n         1 MOL     -0.305806
    127 C39         6.9130   -3.2730   -0.2630 c3        1 MOL     -0.113181
    128 C40         7.1590   -1.7570   -0.1900 c         1 MOL      0.364211
    129 O19         7.8240   -1.2190    0.6700 o         1 MOL     -0.466116
    130 C41         8.0570   -3.8680   -1.1570 c3        1 MOL      0.322682
    131 C42         8.1150   -5.3980   -1.1260 c3        1 MOL     -0.358447
    132 O20         7.8110   -3.4650   -2.4720 oh        1 MOL     -0.639226
    133 H60         5.6590   -4.0020   -1.8270 hn        1 MOL      0.281191
    134 H61         6.9130   -3.6970    0.7430 h1        1 MOL      0.143981
    135 H62         8.9670   -3.4680   -0.7240 h1        1 MOL      0.031324
    136 H63         8.6290   -3.5550   -2.9690 ho        1 MOL      0.421073
    137 H64         8.0450   -5.8110   -0.1180 hc        1 MOL      0.100636
    138 H65         7.2460   -5.7560   -1.6690 hc        1 MOL      0.100636
    139 H66         9.0530   -5.6620   -1.6210 hc        1 MOL      0.100636
    140 N12         6.6000   -1.0470   -1.1570 n         1 MOL     -0.240575
    141 C43         6.7850    0.4130   -1.0840 c3        1 MOL      0.029280
    142 C44         6.0920    0.9760    0.1380 c         1 MOL      0.416183
    143 O21         6.6650    1.8550    0.7670 o         1 MOL     -0.556508
    144 C45         6.2660    1.0040   -2.4200 c3        1 MOL     -0.173097
    145 C46         7.0470    2.3370   -2.5960 c3        1 MOL     -0.023048
    146 C47         6.5410    3.1700   -3.7770 c3        1 MOL      0.151806
    147 C48         7.4390    4.3360   -3.9180 c3        1 MOL     -0.022232
    148 N13         6.8600    5.3380   -4.8580 n4        1 MOL     -0.144072
    149 H67         6.1120   -1.4410   -1.9400 hn        1 MOL      0.212194
    150 H68         7.8320    0.6170   -0.9190 h1        1 MOL      0.073786
    151 H69         5.1980    1.2180   -2.3470 hc        1 MOL      0.062400
    152 H70         6.5310    0.3530   -3.2490 hc        1 MOL      0.062400
    153 H71         8.0820    2.0380   -2.7850 hc        1 MOL      0.029768
    154 H72         6.9900    2.9460   -1.6940 hc        1 MOL      0.029768
    155 H73         5.5450    3.5440   -3.5570 hc        1 MOL     -0.014744
    156 H74         6.5290    2.6280   -4.7270 hc        1 MOL     -0.014744
    157 H75         8.3950    3.9290   -4.2240 hx        1 MOL      0.068907
    158 H76         7.5600    4.7790   -2.9320 hx        1 MOL      0.068907
    159 H77         6.1520    5.0070   -5.5060 hn        1 MOL      0.253231
    160 H78         6.4870    6.1610   -4.4120 hn        1 MOL      0.253231
    161 H79         7.5830    5.7430   -5.4310 hn        1 MOL      0.253231
    162 N14         4.9170    0.5050    0.4870 n         1 MOL      0.012897
    163 C49         4.1260    1.0090    1.7140 c3        1 MOL     -0.382274
    164 C50         4.7920    0.6120    3.0290 c         1 MOL      0.617783
    165 O22         4.7960    1.4150    3.9090 o         1 MOL     -0.550176
    166 C51         2.5820    0.7160    1.5810 c3        1 MOL      0.320730
    167 C52         1.9820    1.5710    0.3700 c3        1 MOL      0.035854
    168 C53         0.6440    1.0130   -0.1900 c         1 MOL      0.638508
    169 O23        -0.4030    1.6920   -0.1720 o         1 MOL     -0.699957
    170 O24         0.6620   -0.2130   -0.5250 o         1 MOL     -0.699957
    171 H80         4.5390   -0.2540   -0.0670 hn        1 MOL      0.117357
    172 H81         4.2430    2.0900    1.7590 h1        1 MOL      0.084317
    173 H82         1.9480    0.8510    2.4550 hc        1 MOL     -0.027229
    174 H83         2.6150   -0.3340    1.3360 hc        1 MOL     -0.027229
    175 H84         2.6940    1.5730   -0.4540 hc        1 MOL     -0.076345
    176 H85         1.8560    2.5790    0.7360 hc        1 MOL     -0.076345
    177 N15         5.4730   -0.5700    3.0590 n         1 MOL     -0.300902
    178 C54         6.4520   -0.9780    4.1400 c3        1 MOL     -0.112725
    179 H86         7.3310   -1.4310    3.6800 h1        1 MOL      0.075820
    180 H87         6.7530   -0.0980    4.7090 h1        1 MOL      0.075820
    181 H88         5.9780   -1.6990    4.8070 h1        1 MOL      0.075820
    182 H89         5.4400   -1.0980    2.1910 hn        1 MOL      0.218289
    183 Ca1        -2.0250   -0.2270   -1.3870 Ca        1 MOL      1.785984
    184 O25        -1.3630   -2.5730   -2.7890 oh        1 MOL     -0.902630
    185 H90        -2.1800   -3.0590   -2.6900 ho        1 MOL      0.414522
    186 H91        -1.2390   -2.4990   -3.7360 ho        1 MOL      0.414522
    187 O26        -0.4830    0.5170   -3.3900 oh        1 MOL     -0.902630
    188 H92         0.2480    0.4010   -3.9980 ho        1 MOL      0.414522
    189 H93        -0.9880    1.2420   -3.7570 ho        1 MOL      0.414522
@<TRIPOS>BOND
     1    1    2 1   
     2    1    4 1   
     3    1    5 1   
     4    1    6 1   
     5    2    3 2   
     6    2    7 1   
     7    7    8 1   
     8    7   15 1   
     9    8    9 1   
    10    8   11 1   
    11    8   16 1   
    12    9   10 2   
    13    9   19 1   
    14   11   12 1   
    15   11   17 1   
    16   11   18 1   
    17   12   13 1   
    18   12   14 1   
    19   19   20 1   
    20   19   28 1   
    21   20   21 1   
    22   20   23 1   
    23   20   29 1   
    24   21   22 2   
    25   21   41 1   
    26   23   24 1   
    27   23   30 1   
    28   23   31 1   
    29   24   25 1   
    30   24   32 1   
    31   24   33 1   
    32   25   26 1   
    33   25   34 1   
    34   25   35 1   
    35   26   27 1   
    36   26   36 1   
    37   26   37 1   
    38   27   38 1   
    39   27   39 1   
    40   27   40 1   
    41   41   42 1   
    42   41   49 1   
    43   42   43 1   
    44   42   45 1   
    45   42   50 1   
    46   43   44 2   
    47   43   53 1   
    48   45   46 1   
    49   45   51 1   
    50   45   52 1   
    51   46   47 1   
    52   46   48 1   
    53   53   54 1   
    54   53   57 1   
    55   54   55 1   
    56   54   58 1   
    57   54   59 1   
    58   55   56 2   
    59   55   60 1   
    60   60   61 1   
    61   60   68 1   
    62   61   62 1   
    63   61   64 1   
    64   61   69 1   
    65   62   63 2   
    66   62   72 1   
    67   64   65 1   
    68   64   70 1   
    69   64   71 1   
    70   65   66 1   
    71   65   67 1   
    72   72   73 1   
    73   72   76 1   
    74   73   74 1   
    75   73   77 1   
    76   73   78 1   
    77   74   75 2   
    78   74   79 1   
    79   79   80 1   
    80   79   86 1   
    81   80   81 1   
    82   80   83 1   
    83   80   87 1   
    84   81   82 2   
    85   81   93 1   
    86   83   84 1   
    87   83   85 1   
    88   83   88 1   
    89   84   90 1   
    90   84   91 1   
    91   84   92 1   
    92   85   89 1   
    93   93   94 1   
    94   93  101 1   
    95   94   95 1   
    96   94   97 1   
    97   94  102 1   
    98   95   96 2   
    99   95  112 1   
   100   97   98 1   
   101   97   99 1   
   102   97  103 1   
   103   98  100 1   
   104   98  104 1   
   105   98  105 1   
   106   99  106 1   
   107   99  107 1   
   108   99  108 1   
   109  100  109 1   
   110  100  110 1   
   111  100  111 1   
   112  112  113 1   
   113  112  119 1   
   114  113  114 1   
   115  113  116 1   
   116  113  120 1   
   117  114  115 2   
   118  114  126 1   
   119  116  117 1   
   120  116  118 1   
   121  116  121 1   
   122  117  123 1   
   123  117  124 1   
   124  117  125 1   
   125  118  122 1   
   126  126  127 1   
   127  126  133 1   
   128  127  128 1   
   129  127  130 1   
   130  127  134 1   
   131  128  129 2   
   132  128  140 1   
   133  130  131 1   
   134  130  132 1   
   135  130  135 1   
   136  131  137 1   
   137  131  138 1   
   138  131  139 1   
   139  132  136 1   
   140  140  141 1   
   141  140  149 1   
   142  141  142 1   
   143  141  144 1   
   144  141  150 1   
   145  142  143 2   
   146  142  162 1   
   147  144  145 1   
   148  144  151 1   
   149  144  152 1   
   150  145  146 1   
   151  145  153 1   
   152  145  154 1   
   153  146  147 1   
   154  146  155 1   
   155  146  156 1   
   156  147  148 1   
   157  147  157 1   
   158  147  158 1   
   159  148  159 1   
   160  148  160 1   
   161  148  161 1   
   162  162  163 1   
   163  162  171 1   
   164  163  164 1   
   165  163  166 1   
   166  163  172 1   
   167  164  165 2   
   168  164  177 1   
   169  166  167 1   
   170  166  173 1   
   171  166  174 1   
   172  167  168 1   
   173  167  175 1   
   174  167  176 1   
   175  168  169 1   
   176  168  170 1   
   177  177  178 1   
   178  177  182 1   
   179  178  179 1   
   180  178  180 1   
   181  178  181 1   
   182  184  185 1   
   183  184  186 1   
   184  187  188 1   
   185  187  189 1   
@<TRIPOS>SUBSTRUCTURE
     1 MOL         1 TEMP              0 ****  ****    0 ROOT
