@<TRIPOS>MOLECULE
MOL
  186   183     1     0     0
SMALL
resp


@<TRIPOS>ATOM
      1 C1          1.2800   -0.9880    6.5740 c3        1 MOL     -0.354630
      2 C2          1.4040   -1.1150    5.1010 c         1 MOL      0.822574
      3 O1          0.4870   -1.4490    4.3560 o         1 MOL     -0.610627
      4 H1          1.9110   -0.1700    6.9220 hc        1 MOL      0.079966
      5 H2          0.2430   -0.7840    6.8350 hc        1 MOL      0.079966
      6 H3          1.5980   -1.9170    7.0470 hc        1 MOL      0.079966
      7 N1          2.5940   -0.8250    4.6040 n         1 MOL     -0.662353
      8 C3          2.9700   -1.0650    3.1600 c3        1 MOL      0.261270
      9 C4          3.2990   -2.5400    2.8720 c         1 MOL      0.387014
     10 O2          3.9280   -3.2760    3.6880 o         1 MOL     -0.566910
     11 C5          4.1820   -0.1740    2.8020 c3        1 MOL     -0.141225
     12 C6          4.7970   -0.5170    1.4870 c         1 MOL      0.740736
     13 O3          6.0240   -0.5920    1.3530 o         1 MOL     -0.641872
     14 O4          4.0320   -0.7760    0.5030 o         1 MOL     -0.641872
     15 H4          3.3550   -0.6760    5.2540 hn        1 MOL      0.306132
     16 H5          2.1300   -0.7210    2.5500 h1        1 MOL      0.080000
     17 H6          5.0170   -0.2500    3.4940 hc        1 MOL      0.006436
     18 H7          3.8230    0.8570    2.7120 hc        1 MOL      0.006436
     19 N2          2.7890   -3.1420    1.7440 n         1 MOL     -0.097028
     20 C7          2.9910   -4.5590    1.4030 c3        1 MOL      0.068862
     21 C8          4.1460   -4.6960    0.3870 c         1 MOL      0.471000
     22 O5          5.0610   -5.5560    0.5040 o         1 MOL     -0.617667
     23 C9          1.7200   -5.3120    0.9300 c3        1 MOL      0.205502
     24 C10         0.7100   -5.2970    2.1030 c3        1 MOL      0.084987
     25 C11         2.0340   -6.6820    0.4670 c3        1 MOL     -0.412575
     26 C12        -0.6870   -5.5640    1.5250 c3        1 MOL      0.028491
     27 H8          2.2240   -2.5980    1.1130 hn        1 MOL     -0.015585
     28 H9          3.3220   -5.0870    2.2940 h1        1 MOL      0.015950
     29 H10         1.3970   -4.6240    0.1460 hc        1 MOL      0.022718
     30 H11         0.7200   -4.3700    2.6790 hc        1 MOL     -0.028705
     31 H12         1.0090   -6.0310    2.8600 hc        1 MOL     -0.028705
     32 H13         2.8930   -6.8090   -0.1920 hc        1 MOL      0.089821
     33 H14         2.2530   -7.2730    1.3520 hc        1 MOL      0.089821
     34 H15         1.1040   -7.0280    0.0130 hc        1 MOL      0.089821
     35 H16        -1.3650   -5.8260    2.3350 hc        1 MOL     -0.023833
     36 H17        -1.1420   -4.7440    0.9580 hc        1 MOL     -0.023833
     37 H18        -0.6030   -6.4710    0.9350 hc        1 MOL     -0.023833
     38 N3          4.0500   -4.0570   -0.7700 n         1 MOL     -0.233778
     39 C13         4.7610   -4.3690   -2.0780 c3        1 MOL     -0.039288
     40 C14         6.0750   -3.5790   -2.2760 c         1 MOL      0.427312
     41 O6          6.6440   -3.5690   -3.3920 o         1 MOL     -0.489674
     42 C15         3.7830   -4.3600   -3.2420 c3        1 MOL     -0.128557
     43 C16         2.6590   -3.3420   -3.1210 c         1 MOL      0.884146
     44 O7          2.8150   -2.3170   -2.4570 o         1 MOL     -0.756614
     45 O8          1.5590   -3.5220   -3.7440 o         1 MOL     -0.756614
     46 H19         3.4880   -3.2220   -0.8100 hn        1 MOL      0.078791
     47 H20         5.0450   -5.4090   -1.9690 h1        1 MOL      0.097601
     48 H21         3.3050   -5.3270   -3.4250 hc        1 MOL      0.019179
     49 H22         4.3870   -4.1470   -4.1180 hc        1 MOL      0.019179
     50 N4          6.5080   -2.9030   -1.1830 n         1 MOL     -0.135440
     51 C17         7.8640   -2.5250   -0.9690 c3        1 MOL     -0.283747
     52 C18         8.2030   -1.1440   -1.6010 c         1 MOL      0.516315
     53 O9          9.1790   -1.0490   -2.4010 o         1 MOL     -0.560204
     54 H23         5.8700   -2.6810   -0.4350 hn        1 MOL      0.227713
     55 H24         8.5040   -3.2900   -1.4240 h1        1 MOL      0.119476
     56 H25         8.0520   -2.5580    0.1010 h1        1 MOL      0.119476
     57 N5          7.3660   -0.1040   -1.2690 n         1 MOL     -0.131126
     58 C19         7.4330    1.3430   -1.6720 c3        1 MOL     -0.039200
     59 C20         7.2930    2.3010   -0.4750 c         1 MOL      0.443923
     60 O10         7.4350    3.5420   -0.5460 o         1 MOL     -0.555337
     61 C21         6.3700    1.8040   -2.7390 c3        1 MOL      0.015777
     62 C22         4.9860    1.3920   -2.3910 c         1 MOL      0.618321
     63 O11         4.4810    0.4800   -3.0610 o         1 MOL     -0.679798
     64 O12         4.3880    1.7700   -1.3540 o         1 MOL     -0.679798
     65 H26         6.7620   -0.2990   -0.4910 hn        1 MOL     -0.005216
     66 H27         8.4370    1.5000   -2.0630 h1        1 MOL      0.061637
     67 H28         6.5660    1.3700   -3.7170 hc        1 MOL     -0.001694
     68 H29         6.3790    2.8830   -2.8790 hc        1 MOL     -0.001694
     69 N6          6.8660    1.7700    0.6900 n         1 MOL     -0.319377
     70 C23         6.7040    2.5910    1.8740 c3        1 MOL     -0.125901
     71 C24         5.5670    3.5770    1.7960 c         1 MOL      0.536724
     72 O13         5.5200    4.5660    2.5190 o         1 MOL     -0.617168
     73 H30         6.5770    0.8070    0.6760 hn        1 MOL      0.273574
     74 H31         7.6250    3.1260    2.1170 h1        1 MOL      0.093958
     75 H32         6.3900    1.9580    2.7020 h1        1 MOL      0.093958
     76 N7          4.5520    3.3760    0.9600 n         1 MOL     -0.276921
     77 C25         3.2960    4.1450    0.9190 c3        1 MOL     -0.092787
     78 C26         2.0560    3.2320    0.9670 c         1 MOL      0.815136
     79 O14         2.0750    2.0730    0.5440 o         1 MOL     -0.764497
     80 C27         3.2490    5.0210   -0.2890 c3        1 MOL     -0.145998
     81 C28         4.2560    6.0890   -0.3180 c3        1 MOL     -0.241861
     82 C29         4.0580    7.0180   -1.5200 c         1 MOL      0.631588
     83 N8          4.9270    7.0830   -2.4550 n         1 MOL     -0.688265
     84 O15         3.2310    7.9220   -1.5520 o         1 MOL     -0.588281
     85 H33         4.5980    2.6000    0.3110 hn        1 MOL      0.228842
     86 H34         3.3080    4.8280    1.7690 h1        1 MOL      0.074293
     87 H35         2.2280    5.3870   -0.2110 hc        1 MOL      0.062504
     88 H36         3.2320    4.3710   -1.1670 hc        1 MOL      0.062504
     89 H37         5.2450    5.6240   -0.3730 hc        1 MOL      0.124437
     90 H38         4.2730    6.6200    0.6370 hc        1 MOL      0.124437
     91 H39         5.7170    6.4620   -2.5450 hn        1 MOL      0.319404
     92 H40         4.5370    7.3260   -3.3510 hn        1 MOL      0.319404
     93 N9          0.9790    3.7230    1.5550 n         1 MOL     -0.645497
     94 C30        -0.2930    2.9330    1.7550 c3        1 MOL      0.280234
     95 C31        -1.4320    3.2790    0.7640 c         1 MOL      0.439553
     96 O16        -1.7970    4.4510    0.7760 o         1 MOL     -0.572246
     97 C32        -0.7200    2.9850    3.1800 c3        1 MOL      0.238360
     98 C33        -1.7580    1.9120    3.6230 c3        1 MOL     -0.273636
     99 C34         0.3270    2.9480    4.2880 c3        1 MOL     -0.273636
    100 H41         0.9970    4.6650    1.9160 hn        1 MOL      0.320398
    101 H42        -0.0910    1.8900    1.5100 h1        1 MOL      0.092229
    102 H43        -1.2310    3.9340    3.2580 hc        1 MOL     -0.064192
    103 H44        -1.4690    0.9620    3.1790 hc        1 MOL      0.052976
    104 H45        -1.8880    1.8960    4.7040 hc        1 MOL      0.052976
    105 H46        -2.7560    2.1320    3.2360 hc        1 MOL      0.052976
    106 H47         0.9900    3.8140    4.2290 hc        1 MOL      0.052976
    107 H48        -0.0750    3.0590    5.2930 hc        1 MOL      0.052976
    108 H49         0.8720    2.0080    4.1860 hc        1 MOL      0.052976
    109 N10        -1.8200    2.2950   -0.0930 n         1 MOL     -0.322546
    110 C35        -2.9480    2.6070   -0.9720 c3        1 MOL      0.209928
    111 C36        -4.2650    2.0760   -0.2970 c         1 MOL      0.350069
    112 O17        -4.2200    1.3480    0.7000 o         1 MOL     -0.365158
    113 C37        -2.5710    1.9610   -2.3130 c3        1 MOL     -0.278702
    114 C38        -3.6730    2.0450   -3.3740 c         1 MOL      0.669225
    115 N11        -3.7090    3.1290   -4.0770 n         1 MOL     -0.781850
    116 O18        -4.5820    1.2290   -3.3940 o         1 MOL     -0.576528
    117 H50        -1.4140    1.3730   -0.0630 hn        1 MOL      0.126864
    118 H51        -3.1290    3.6520   -1.1890 h1        1 MOL      0.019803
    119 H52        -2.2940    0.9090   -2.2670 hc        1 MOL      0.091162
    120 H53        -1.6980    2.4480   -2.7410 hc        1 MOL      0.091162
    121 H54        -3.1280    3.9090   -3.8120 hn        1 MOL      0.361059
    122 H55        -4.4270    3.1680   -4.7930 hn        1 MOL      0.361059
    123 N12        -5.4110    2.4590   -0.7690 n         1 MOL     -0.451827
    124 C39        -6.7490    2.0540   -0.3040 c3        1 MOL      0.261147
    125 C40        -6.9480    0.5430   -0.0820 c         1 MOL      0.636128
    126 O19        -7.5110    0.2410    0.9820 o         1 MOL     -0.476479
    127 C41        -7.8320    2.8170   -1.0050 c3        1 MOL     -0.198428
    128 C42        -9.2150    2.4860   -0.6710 ca        1 MOL      0.298893
    129 C43        -9.6630    2.5570    0.6000 ca        1 MOL     -0.408301
    130 C44       -10.0060    2.0690   -1.7750 ca        1 MOL     -0.408301
    131 C45       -10.9200    2.0890    0.9380 ca        1 MOL     -0.063109
    132 C46       -11.2140    1.4410   -1.3430 ca        1 MOL     -0.063109
    133 C47       -11.7260    1.4730   -0.0180 ca        1 MOL      0.137737
    134 O20       -12.8560    0.8320    0.3860 oh        1 MOL     -0.456862
    135 H56        -5.2650    3.0770   -1.5700 hn        1 MOL      0.229649
    136 H57        -6.7070    2.3770    0.7310 h1        1 MOL     -0.009719
    137 H58        -7.7330    2.5860   -2.0650 hc        1 MOL      0.052243
    138 H59        -7.7370    3.8990   -0.9460 hc        1 MOL      0.052243
    139 H60        -9.0640    3.0230    1.3580 ha        1 MOL      0.190124
    140 H61        -9.6410    1.9370   -2.7770 ha        1 MOL      0.190124
    141 H62       -11.2360    2.1670    1.9640 ha        1 MOL      0.109798
    142 H63       -11.7860    0.8730   -2.0620 ha        1 MOL      0.109798
    143 H64       -13.3050    0.3910   -0.3410 ho        1 MOL      0.363361
    144 N13        -6.4990   -0.2670   -1.0340 n         1 MOL     -0.524768
    145 C48        -6.6120   -1.7330   -0.9530 c3        1 MOL     -0.046104
    146 C49        -5.7450   -2.3500    0.1210 c         1 MOL      0.157748
    147 O21        -6.1300   -3.2910    0.8320 o         1 MOL     -0.430057
    148 C50        -6.2160   -2.3600   -2.2320 c3        1 MOL      0.373217
    149 C51        -6.4160   -3.8000   -2.4700 c3        1 MOL     -0.283980
    150 C52        -7.8750   -4.1070   -2.7540 c         1 MOL      0.714464
    151 O22        -8.1950   -4.4620   -3.9440 o         1 MOL     -0.738720
    152 O23        -8.6820   -4.0020   -1.7870 o         1 MOL     -0.738720
    153 H65        -6.0720    0.2310   -1.8010 hn        1 MOL      0.267561
    154 H66        -7.6540   -2.0250   -0.7870 h1        1 MOL      0.149919
    155 H67        -5.1810   -2.0710   -2.4040 hc        1 MOL     -0.090355
    156 H68        -6.7780   -1.8410   -3.0050 hc        1 MOL     -0.090355
    157 H69        -6.0860   -4.2960   -1.5650 hc        1 MOL      0.032511
    158 H70        -5.7760   -4.1090   -3.2980 hc        1 MOL      0.032511
    159 N14        -4.6040   -1.6820    0.4050 n         1 MOL      0.006975
    160 C53        -3.7540   -2.0150    1.5470 c3        1 MOL     -0.285455
    161 C54        -4.3870   -1.4850    2.8300 c         1 MOL      0.449955
    162 O24        -4.0500   -2.0880    3.8900 o         1 MOL     -0.587146
    163 C55        -2.3340   -1.4040    1.3180 c3        1 MOL      0.218609
    164 C56        -1.7410   -1.8600   -0.0530 c3        1 MOL     -0.045420
    165 C57        -0.3460   -1.1900   -0.1650 c         1 MOL      0.548959
    166 O25         0.6640   -1.9030   -0.0680 o         1 MOL     -0.628243
    167 O26        -0.1810    0.0210   -0.4860 o         1 MOL     -0.628243
    168 H71        -4.3070   -0.9120   -0.1720 hn        1 MOL      0.247306
    169 H72        -3.5030   -3.0720    1.6380 h1        1 MOL      0.154623
    170 H73        -1.5800   -1.5870    2.0860 hc        1 MOL     -0.001170
    171 H74        -2.3210   -0.3100    1.3490 hc        1 MOL     -0.001170
    172 H75        -2.4200   -1.5990   -0.8610 hc        1 MOL     -0.015704
    173 H76        -1.6530   -2.9410    0.0650 hc        1 MOL     -0.015704
    174 N15        -5.1910   -0.4650    2.7900 n         1 MOL      0.052730
    175 C58        -5.7700    0.1130    3.9480 c3        1 MOL     -0.330105
    176 H77        -5.0710    0.8240    4.3880 h1        1 MOL      0.104753
    177 H78        -6.6900    0.6310    3.6760 h1        1 MOL      0.104753
    178 H79        -5.9950   -0.6710    4.6720 h1        1 MOL      0.104753
    179 H80        -5.3790   -0.0950    1.8650 hn        1 MOL     -0.007844
    180 Ca1         2.3570   -0.0450   -1.2790 Ca        1 MOL      1.748616
    181 O27         1.9030    1.9870   -2.8340 oh        1 MOL     -0.834613
    182 H81         1.4490    1.9040   -3.6640 ho        1 MOL      0.395364
    183 H82         2.4650    2.7530   -2.9360 ho        1 MOL      0.395364
    184 O28         0.7500   -0.8880   -3.5630 oh        1 MOL     -0.834613
    185 H83        -0.1820   -0.7690   -3.7210 ho        1 MOL      0.395364
    186 H84         0.8960   -1.8350   -3.6190 ho        1 MOL      0.395364
@<TRIPOS>BOND
     1    1    2 1   
     2    1    4 1   
     3    1    5 1   
     4    1    6 1   
     5    2    3 2   
     6    2    7 1   
     7    7    8 1   
     8    7   15 1   
     9    8    9 1   
    10    8   11 1   
    11    8   16 1   
    12    9   10 2   
    13    9   19 1   
    14   11   12 1   
    15   11   17 1   
    16   11   18 1   
    17   12   13 1   
    18   12   14 1   
    19   19   20 1   
    20   19   27 1   
    21   20   21 1   
    22   20   23 1   
    23   20   28 1   
    24   21   22 2   
    25   21   38 1   
    26   23   24 1   
    27   23   25 1   
    28   23   29 1   
    29   24   26 1   
    30   24   30 1   
    31   24   31 1   
    32   25   32 1   
    33   25   33 1   
    34   25   34 1   
    35   26   35 1   
    36   26   36 1   
    37   26   37 1   
    38   38   39 1   
    39   38   46 1   
    40   39   40 1   
    41   39   42 1   
    42   39   47 1   
    43   40   41 2   
    44   40   50 1   
    45   42   43 1   
    46   42   48 1   
    47   42   49 1   
    48   43   44 1   
    49   43   45 1   
    50   50   51 1   
    51   50   54 1   
    52   51   52 1   
    53   51   55 1   
    54   51   56 1   
    55   52   53 2   
    56   52   57 1   
    57   57   58 1   
    58   57   65 1   
    59   58   59 1   
    60   58   61 1   
    61   58   66 1   
    62   59   60 2   
    63   59   69 1   
    64   61   62 1   
    65   61   67 1   
    66   61   68 1   
    67   62   63 1   
    68   62   64 1   
    69   69   70 1   
    70   69   73 1   
    71   70   71 1   
    72   70   74 1   
    73   70   75 1   
    74   71   72 2   
    75   71   76 1   
    76   76   77 1   
    77   76   85 1   
    78   77   78 1   
    79   77   80 1   
    80   77   86 1   
    81   78   79 2   
    82   78   93 1   
    83   80   81 1   
    84   80   87 1   
    85   80   88 1   
    86   81   82 1   
    87   81   89 1   
    88   81   90 1   
    89   82   83 1   
    90   82   84 2   
    91   83   91 1   
    92   83   92 1   
    93   93   94 1   
    94   93  100 1   
    95   94   95 1   
    96   94   97 1   
    97   94  101 1   
    98   95   96 2   
    99   95  109 1   
   100   97   98 1   
   101   97   99 1   
   102   97  102 1   
   103   98  103 1   
   104   98  104 1   
   105   98  105 1   
   106   99  106 1   
   107   99  107 1   
   108   99  108 1   
   109  109  110 1   
   110  109  117 1   
   111  110  111 1   
   112  110  113 1   
   113  110  118 1   
   114  111  112 2   
   115  111  123 1   
   116  113  114 1   
   117  113  119 1   
   118  113  120 1   
   119  114  115 1   
   120  114  116 2   
   121  115  121 1   
   122  115  122 1   
   123  123  124 1   
   124  123  135 1   
   125  124  125 1   
   126  124  127 1   
   127  124  136 1   
   128  125  126 2   
   129  125  144 1   
   130  127  128 1   
   131  127  137 1   
   132  127  138 1   
   133  128  129 ar  
   134  128  130 ar  
   135  129  131 ar  
   136  129  139 1   
   137  130  132 ar  
   138  130  140 1   
   139  131  133 ar  
   140  131  141 1   
   141  132  133 ar  
   142  132  142 1   
   143  133  134 1   
   144  134  143 1   
   145  144  145 1   
   146  144  153 1   
   147  145  146 1   
   148  145  148 1   
   149  145  154 1   
   150  146  147 2   
   151  146  159 1   
   152  148  149 1   
   153  148  155 1   
   154  148  156 1   
   155  149  150 1   
   156  149  157 1   
   157  149  158 1   
   158  150  151 1   
   159  150  152 1   
   160  159  160 1   
   161  159  168 1   
   162  160  161 1   
   163  160  163 1   
   164  160  169 1   
   165  161  162 2   
   166  161  174 1   
   167  163  164 1   
   168  163  170 1   
   169  163  171 1   
   170  164  165 1   
   171  164  172 1   
   172  164  173 1   
   173  165  166 1   
   174  165  167 1   
   175  174  175 1   
   176  174  179 1   
   177  175  176 1   
   178  175  177 1   
   179  175  178 1   
   180  181  182 1   
   181  181  183 1   
   182  184  185 1   
   183  184  186 1   
@<TRIPOS>SUBSTRUCTURE
     1 MOL         1 TEMP              0 ****  ****    0 ROOT
