@<TRIPOS>MOLECULE
MOL
  186   183     1     0     0
SMALL
resp


@<TRIPOS>ATOM
      1 C1          0.6290   -1.4170    6.5180 c3        1 MOL     -0.244215
      2 C2          0.9470   -1.5240    5.0030 c         1 MOL      0.757498
      3 O1          0.1510   -2.0660    4.2460 o         1 MOL     -0.593417
      4 H1          0.9430   -0.4410    6.8860 hc        1 MOL      0.050432
      5 H2         -0.4440   -1.5360    6.6730 hc        1 MOL      0.050432
      6 H3          1.1630   -2.1980    7.0580 hc        1 MOL      0.050432
      7 N1          2.1290   -1.0640    4.5930 n         1 MOL     -0.709635
      8 C3          2.6720   -1.3020    3.2090 c3        1 MOL      0.354914
      9 C4          3.0130   -2.8020    2.9650 c         1 MOL      0.438564
     10 O2          3.6010   -3.4650    3.8510 o         1 MOL     -0.582104
     11 C5          3.9110   -0.3440    3.0460 c3        1 MOL     -0.270043
     12 C6          4.4780   -0.4240    1.6610 c         1 MOL      0.773180
     13 O3          3.7700   -0.9240    0.7500 o         1 MOL     -0.629465
     14 O4          5.6920   -0.2470    1.4500 o         1 MOL     -0.629465
     15 H4          2.7250   -0.5850    5.2580 hn        1 MOL      0.325179
     16 H5          1.8520   -0.9670    2.5830 h1        1 MOL      0.021515
     17 H6          4.7260   -0.6390    3.7120 hc        1 MOL      0.044565
     18 H7          3.6050    0.6700    3.3190 hc        1 MOL      0.044565
     19 N2          2.6260   -3.2930    1.7900 n         1 MOL     -0.098544
     20 C7          2.7680   -4.7240    1.4150 c3        1 MOL     -0.247800
     21 C8          3.8540   -4.9610    0.2880 c         1 MOL      0.613616
     22 O5          4.5430   -5.9600    0.2700 o         1 MOL     -0.591971
     23 C9          1.4660   -5.4270    1.1900 c3        1 MOL      0.267114
     24 C10         0.3390   -5.0250    2.1980 c3        1 MOL      0.110129
     25 C11         1.5600   -6.9030    0.9860 c3        1 MOL     -0.295596
     26 C12        -1.0520   -5.6290    2.0170 c3        1 MOL     -0.234199
     27 H8          2.3170   -2.6340    1.1020 hn        1 MOL     -0.004479
     28 H9          3.2830   -5.1800    2.2640 h1        1 MOL      0.077419
     29 H10         1.1150   -5.1770    0.1940 hc        1 MOL      0.002762
     30 H11         0.2040   -3.9470    2.3130 hc        1 MOL     -0.013817
     31 H12         0.6630   -5.4330    3.1550 hc        1 MOL     -0.013817
     32 H13         1.4660   -7.4620    1.9210 hc        1 MOL      0.054143
     33 H14         0.7340   -7.2900    0.3910 hc        1 MOL      0.054143
     34 H15         2.4400   -7.1080    0.3890 hc        1 MOL      0.054143
     35 H16        -1.0670   -6.6300    2.4480 hc        1 MOL      0.045407
     36 H17        -1.7360   -5.0700    2.6560 hc        1 MOL      0.045407
     37 H18        -1.3220   -5.5780    0.9670 hc        1 MOL      0.045407
     38 N3          3.7910   -4.0360   -0.6400 n         1 MOL     -0.360430
     39 C13         4.7570   -4.1710   -1.7520 c3        1 MOL      0.019047
     40 C14         6.1630   -3.4990   -1.6210 c         1 MOL      0.458776
     41 O6          7.0730   -3.9590   -2.3700 o         1 MOL     -0.578065
     42 C15         4.0830   -3.9030   -3.0850 c3        1 MOL     -0.055692
     43 C16         3.3040   -2.6150   -3.1930 c         1 MOL      0.715584
     44 O7          3.4130   -1.7680   -2.2770 o         1 MOL     -0.697963
     45 O8          2.7410   -2.4270   -4.3400 o         1 MOL     -0.697963
     46 H19         3.2400   -3.2000   -0.5480 hn        1 MOL      0.288546
     47 H20         5.1190   -5.2000   -1.8570 h1        1 MOL      0.067445
     48 H21         3.4030   -4.7140   -3.3460 hc        1 MOL      0.015543
     49 H22         4.8910   -3.9620   -3.8190 hc        1 MOL      0.015543
     50 N4          6.3260   -2.5860   -0.7380 n         1 MOL     -0.128735
     51 C17         7.6340   -2.1140   -0.3230 c3        1 MOL      0.010173
     52 C18         7.9320   -0.7890   -0.9870 c         1 MOL      0.478757
     53 O9          8.8250   -0.7660   -1.7850 o         1 MOL     -0.597019
     54 H23         5.4520   -2.2010   -0.3910 hn        1 MOL      0.102431
     55 H24         8.4220   -2.8320   -0.5460 h1        1 MOL      0.033328
     56 H25         7.7390   -1.9080    0.7440 h1        1 MOL      0.033328
     57 N5          7.1230    0.2210   -0.9630 n         1 MOL     -0.123594
     58 C19         7.3050    1.5670   -1.5520 c3        1 MOL      0.050696
     59 C20         7.1440    2.6720   -0.4250 c         1 MOL      0.354193
     60 O10         7.3710    3.8440   -0.7650 o         1 MOL     -0.522204
     61 C21         6.3530    1.9220   -2.7530 c3        1 MOL     -0.192886
     62 C22         4.8870    1.7500   -2.3210 c         1 MOL      0.796043
     63 O11         4.0360    1.6550   -3.2160 o         1 MOL     -0.741829
     64 O12         4.6150    1.6200   -1.0980 o         1 MOL     -0.741829
     65 H26         6.3440    0.1060   -0.3300 hn        1 MOL      0.025879
     66 H27         8.3240    1.7610   -1.8850 h1        1 MOL      0.056654
     67 H28         6.4900    1.3330   -3.6590 hc        1 MOL      0.063180
     68 H29         6.4630    2.9850   -2.9880 hc        1 MOL      0.063180
     69 N6          6.6840    2.4490    0.8360 n         1 MOL     -0.194959
     70 C23         6.4750    3.5180    1.8450 c3        1 MOL     -0.290469
     71 C24         5.2590    4.3440    1.6860 c         1 MOL      0.599233
     72 O13         5.1850    5.4690    2.2090 o         1 MOL     -0.611787
     73 H30         6.4170    1.5210    1.1080 hn        1 MOL      0.169022
     74 H31         7.3210    4.1710    1.6290 h1        1 MOL      0.127491
     75 H32         6.5230    3.0560    2.8240 h1        1 MOL      0.127491
     76 N7          4.2480    3.8340    1.0180 n         1 MOL     -0.242313
     77 C25         2.9440    4.4370    0.9320 c3        1 MOL     -0.319144
     78 C26         1.8330    3.3470    1.1000 c         1 MOL      0.766512
     79 O14         1.9760    2.2260    0.5540 o         1 MOL     -0.779082
     80 C27         2.7340    5.1640   -0.4300 c3        1 MOL      0.218169
     81 C28         3.2070    6.6470   -0.3710 c3        1 MOL     -0.307946
     82 C29         2.4860    7.5440   -1.3620 c         1 MOL      0.604057
     83 N8          2.8990    7.5700   -2.5900 n         1 MOL     -0.755222
     84 O15         1.4260    8.1160   -1.0670 o         1 MOL     -0.577032
     85 H33         4.3770    2.9950    0.4720 hn        1 MOL      0.255146
     86 H34         2.8250    5.1650    1.7380 h1        1 MOL      0.138008
     87 H35         1.6910    5.3110   -0.6970 hc        1 MOL      0.016674
     88 H36         3.0800    4.6560   -1.3350 hc        1 MOL      0.016674
     89 H37         4.2560    6.8080   -0.6550 hc        1 MOL      0.092242
     90 H38         2.8460    6.9660    0.6050 hc        1 MOL      0.092242
     91 H39         3.8340    7.2300   -2.7800 hn        1 MOL      0.357338
     92 H40         2.3520    8.1300   -3.2280 hn        1 MOL      0.357338
     93 N9          0.7190    3.7950    1.5670 n         1 MOL     -0.536841
     94 C30        -0.4550    2.9820    1.7670 c3        1 MOL      0.248496
     95 C31        -1.5810    3.2230    0.7530 c         1 MOL      0.377496
     96 O16        -2.1430    4.2700    0.5960 o         1 MOL     -0.545595
     97 C32        -1.0010    3.1300    3.2610 c3        1 MOL      0.208442
     98 C33        -2.1960    2.2790    3.5320 c3        1 MOL     -0.282238
     99 C34         0.0740    2.7530    4.3470 c3        1 MOL     -0.282238
    100 H41         0.6290    4.7890    1.7500 hn        1 MOL      0.280605
    101 H42        -0.2090    1.9340    1.5870 h1        1 MOL      0.088223
    102 H43        -1.3350    4.1660    3.2950 hc        1 MOL     -0.036073
    103 H44        -1.9430    1.2700    3.1920 hc        1 MOL      0.060524
    104 H45        -2.3310    2.1760    4.6090 hc        1 MOL      0.060524
    105 H46        -3.0710    2.6300    2.9780 hc        1 MOL      0.060524
    106 H47         0.9080    3.4480    4.2210 hc        1 MOL      0.060524
    107 H48        -0.2890    2.9220    5.3630 hc        1 MOL      0.060524
    108 H49         0.4940    1.7880    4.0600 hc        1 MOL      0.060524
    109 N10        -1.8950    2.2040   -0.1340 n         1 MOL     -0.204417
    110 C35        -2.9660    2.2600   -1.1100 c3        1 MOL      0.219545
    111 C36        -4.2820    1.7540   -0.4430 c         1 MOL      0.378628
    112 O17        -4.3200    1.0890    0.6090 o         1 MOL     -0.422554
    113 C37        -2.5910    1.3560   -2.3560 c3        1 MOL     -0.200716
    114 C38        -3.6460    1.4100   -3.4230 c         1 MOL      0.619267
    115 N11        -3.7790    2.6150   -4.0280 n         1 MOL     -0.777788
    116 O18        -4.4120    0.5160   -3.6400 o         1 MOL     -0.516124
    117 H50        -1.3810    1.3330   -0.0850 hn        1 MOL      0.074071
    118 H51        -3.1340    3.2890   -1.4230 h1        1 MOL      0.003530
    119 H52        -2.3840    0.3230   -2.0640 hc        1 MOL      0.095985
    120 H53        -1.6540    1.8290   -2.6660 hc        1 MOL      0.095985
    121 H54        -3.1050    3.3750   -4.0370 hn        1 MOL      0.350686
    122 H55        -4.5420    2.6030   -4.6870 hn        1 MOL      0.350686
    123 N12        -5.3930    1.9860   -1.0870 n         1 MOL     -0.423146
    124 C39        -6.6610    1.4440   -0.6230 c3        1 MOL      0.136354
    125 C40        -6.8220   -0.0780   -0.5760 c         1 MOL      0.546705
    126 O19        -7.4510   -0.6380    0.3120 o         1 MOL     -0.503121
    127 C41        -7.8230    2.1520   -1.3850 c3        1 MOL     -0.094366
    128 C42        -9.1540    2.0080   -0.6790 ca        1 MOL      0.055939
    129 C43        -9.6910    3.0460    0.0140 ca        1 MOL     -0.217287
    130 C44        -9.9740    0.8890   -0.9440 ca        1 MOL     -0.217287
    131 C45       -10.9200    2.9030    0.7360 ca        1 MOL     -0.189124
    132 C46       -11.2340    0.7590   -0.2700 ca        1 MOL     -0.189124
    133 C47       -11.6870    1.7690    0.5690 ca        1 MOL      0.303916
    134 O20       -12.8740    1.5820    1.2200 oh        1 MOL     -0.567760
    135 H56        -5.4000    2.5950   -1.8880 hn        1 MOL      0.228498
    136 H57        -6.7160    1.7950    0.4100 h1        1 MOL      0.076749
    137 H58        -7.8970    1.8320   -2.4230 hc        1 MOL      0.046429
    138 H59        -7.5850    3.2140   -1.4460 hc        1 MOL      0.046429
    139 H60        -9.2780    4.0420   -0.0340 ha        1 MOL      0.140857
    140 H61        -9.5950    0.0170   -1.4700 ha        1 MOL      0.140857
    141 H62       -11.3130    3.7060    1.3330 ha        1 MOL      0.117661
    142 H63       -11.8850   -0.0750   -0.5030 ha        1 MOL      0.117661
    143 H64       -13.2490    0.7030    1.1860 ho        1 MOL      0.403947
    144 N13        -5.9670   -0.7840   -1.3620 n         1 MOL     -0.453726
    145 C48        -5.9300   -2.2750   -1.4730 c3        1 MOL      0.012702
    146 C49        -5.2080   -2.8690   -0.1920 c         1 MOL      0.281902
    147 O21        -5.5190   -3.9420    0.3220 o         1 MOL     -0.494733
    148 C50        -5.0660   -2.5520   -2.7700 c3        1 MOL     -0.003536
    149 C51        -5.0250   -4.0540   -2.9910 c3        1 MOL     -0.404450
    150 C52        -4.5160   -4.4490   -4.3540 c         1 MOL      0.842177
    151 O22        -3.3750   -4.8780   -4.4720 o         1 MOL     -0.763000
    152 O23        -5.2280   -4.3970   -5.3650 o         1 MOL     -0.763000
    153 H65        -5.5110   -0.2980   -2.1320 hn        1 MOL      0.227711
    154 H66        -6.9290   -2.6940   -1.5710 h1        1 MOL      0.118013
    155 H67        -4.0510   -2.1550   -2.7130 hc        1 MOL      0.052593
    156 H68        -5.5290   -2.0710   -3.6320 hc        1 MOL      0.052593
    157 H69        -6.0610   -4.3980   -2.9580 hc        1 MOL      0.078085
    158 H70        -4.3780   -4.3820   -2.1680 hc        1 MOL      0.078085
    159 N14        -4.2570   -2.1020    0.4080 n         1 MOL     -0.123360
    160 C53        -3.5840   -2.2500    1.6810 c3        1 MOL     -0.063100
    161 C54        -4.5090   -1.8060    2.8210 c         1 MOL      0.479598
    162 O24        -4.2380   -2.1980    3.9310 o         1 MOL     -0.553762
    163 C55        -2.2860   -1.4280    1.5260 c3        1 MOL      0.320227
    164 C56        -1.3910   -1.8480    0.3270 c3        1 MOL     -0.106080
    165 C57        -0.0080   -1.1750    0.1590 c         1 MOL      0.663826
    166 O25         1.0180   -1.8350   -0.0240 o         1 MOL     -0.707712
    167 O26         0.0240    0.0670    0.0570 o         1 MOL     -0.707712
    168 H71        -3.9620   -1.2370   -0.0150 hn        1 MOL      0.158722
    169 H72        -3.3070   -3.3000    1.7500 h1        1 MOL      0.075257
    170 H73        -1.7050   -1.5380    2.4420 hc        1 MOL     -0.053793
    171 H74        -2.6120   -0.3930    1.5090 hc        1 MOL     -0.053793
    172 H75        -1.8430   -1.7200   -0.6540 hc        1 MOL      0.043075
    173 H76        -1.2980   -2.9310    0.4140 hc        1 MOL      0.043075
    174 N15        -5.4720   -0.8430    2.6410 n         1 MOL     -0.135415
    175 C58        -6.1750   -0.0490    3.7610 c3        1 MOL     -0.325913
    176 H77        -6.3680    0.9680    3.4180 h1        1 MOL      0.118224
    177 H78        -7.1180   -0.5330    4.0120 h1        1 MOL      0.118224
    178 H79        -5.5350   -0.0200    4.6430 h1        1 MOL      0.118224
    179 H80        -5.7270   -0.5720    1.7100 hn        1 MOL      0.097099
    180 Ca1         2.2970    0.2810   -1.1100 Ca        1 MOL      1.776701
    181 O27         0.8870   -0.6820   -3.3320 oh        1 MOL     -0.870783
    182 H81         1.4390   -1.3580   -3.7450 ho        1 MOL      0.398837
    183 H82         0.2130   -0.5010   -3.9850 ho        1 MOL      0.398837
    184 O28         1.6280    2.4250   -2.6740 oh        1 MOL     -0.870783
    185 H83         1.6450    3.3880   -2.7460 ho        1 MOL      0.398837
    186 H84         2.4610    2.1450   -3.0400 ho        1 MOL      0.398837
@<TRIPOS>BOND
     1    1    2 1   
     2    1    4 1   
     3    1    5 1   
     4    1    6 1   
     5    2    3 2   
     6    2    7 1   
     7    7    8 1   
     8    7   15 1   
     9    8    9 1   
    10    8   11 1   
    11    8   16 1   
    12    9   10 2   
    13    9   19 1   
    14   11   12 1   
    15   11   17 1   
    16   11   18 1   
    17   12   13 1   
    18   12   14 1   
    19   19   20 1   
    20   19   27 1   
    21   20   21 1   
    22   20   23 1   
    23   20   28 1   
    24   21   22 2   
    25   21   38 1   
    26   23   24 1   
    27   23   25 1   
    28   23   29 1   
    29   24   26 1   
    30   24   30 1   
    31   24   31 1   
    32   25   32 1   
    33   25   33 1   
    34   25   34 1   
    35   26   35 1   
    36   26   36 1   
    37   26   37 1   
    38   38   39 1   
    39   38   46 1   
    40   39   40 1   
    41   39   42 1   
    42   39   47 1   
    43   40   41 2   
    44   40   50 1   
    45   42   43 1   
    46   42   48 1   
    47   42   49 1   
    48   43   44 1   
    49   43   45 1   
    50   50   51 1   
    51   50   54 1   
    52   51   52 1   
    53   51   55 1   
    54   51   56 1   
    55   52   53 2   
    56   52   57 1   
    57   57   58 1   
    58   57   65 1   
    59   58   59 1   
    60   58   61 1   
    61   58   66 1   
    62   59   60 2   
    63   59   69 1   
    64   61   62 1   
    65   61   67 1   
    66   61   68 1   
    67   62   63 1   
    68   62   64 1   
    69   69   70 1   
    70   69   73 1   
    71   70   71 1   
    72   70   74 1   
    73   70   75 1   
    74   71   72 2   
    75   71   76 1   
    76   76   77 1   
    77   76   85 1   
    78   77   78 1   
    79   77   80 1   
    80   77   86 1   
    81   78   79 2   
    82   78   93 1   
    83   80   81 1   
    84   80   87 1   
    85   80   88 1   
    86   81   82 1   
    87   81   89 1   
    88   81   90 1   
    89   82   83 1   
    90   82   84 2   
    91   83   91 1   
    92   83   92 1   
    93   93   94 1   
    94   93  100 1   
    95   94   95 1   
    96   94   97 1   
    97   94  101 1   
    98   95   96 2   
    99   95  109 1   
   100   97   98 1   
   101   97   99 1   
   102   97  102 1   
   103   98  103 1   
   104   98  104 1   
   105   98  105 1   
   106   99  106 1   
   107   99  107 1   
   108   99  108 1   
   109  109  110 1   
   110  109  117 1   
   111  110  111 1   
   112  110  113 1   
   113  110  118 1   
   114  111  112 2   
   115  111  123 1   
   116  113  114 1   
   117  113  119 1   
   118  113  120 1   
   119  114  115 1   
   120  114  116 2   
   121  115  121 1   
   122  115  122 1   
   123  123  124 1   
   124  123  135 1   
   125  124  125 1   
   126  124  127 1   
   127  124  136 1   
   128  125  126 2   
   129  125  144 1   
   130  127  128 1   
   131  127  137 1   
   132  127  138 1   
   133  128  129 ar  
   134  128  130 ar  
   135  129  131 ar  
   136  129  139 1   
   137  130  132 ar  
   138  130  140 1   
   139  131  133 ar  
   140  131  141 1   
   141  132  133 ar  
   142  132  142 1   
   143  133  134 1   
   144  134  143 1   
   145  144  145 1   
   146  144  153 1   
   147  145  146 1   
   148  145  148 1   
   149  145  154 1   
   150  146  147 2   
   151  146  159 1   
   152  148  149 1   
   153  148  155 1   
   154  148  156 1   
   155  149  150 1   
   156  149  157 1   
   157  149  158 1   
   158  150  151 1   
   159  150  152 1   
   160  159  160 1   
   161  159  168 1   
   162  160  161 1   
   163  160  163 1   
   164  160  169 1   
   165  161  162 2   
   166  161  174 1   
   167  163  164 1   
   168  163  170 1   
   169  163  171 1   
   170  164  165 1   
   171  164  172 1   
   172  164  173 1   
   173  165  166 1   
   174  165  167 1   
   175  174  175 1   
   176  174  179 1   
   177  175  176 1   
   178  175  177 1   
   179  175  178 1   
   180  181  182 1   
   181  181  183 1   
   182  184  185 1   
   183  184  186 1   
@<TRIPOS>SUBSTRUCTURE
     1 MOL         1 TEMP              0 ****  ****    0 ROOT
