@<TRIPOS>MOLECULE
MOL
  175   173     1     0     0
SMALL
resp


@<TRIPOS>ATOM
      1 C1          0.4360    4.7370    5.1190 c3        1 MOL     -0.349422
      2 C2         -0.1810    4.6330    3.7030 c         1 MOL      0.610037
      3 O1          0.3390    5.2330    2.7210 o         1 MOL     -0.529789
      4 H1         -0.1530    4.1430    5.8170 hc        1 MOL      0.087786
      5 H2          1.4600    4.3630    5.0990 hc        1 MOL      0.087786
      6 H3          0.4360    5.7790    5.4400 hc        1 MOL      0.087786
      7 N1         -1.3870    4.1190    3.6140 n         1 MOL     -0.471816
      8 C3         -2.0300    3.7820    2.3350 c3        1 MOL     -0.014308
      9 C4         -2.3000    4.9480    1.3880 c         1 MOL      0.693610
     10 O2         -2.5460    6.0800    1.8500 o         1 MOL     -0.559501
     11 C5         -3.3390    3.0950    2.6260 c3        1 MOL     -0.010099
     12 C6         -4.1160    2.6410    1.4220 c         1 MOL      0.487528
     13 O3         -5.3440    3.0430    1.3510 o         1 MOL     -0.599797
     14 O4         -3.5280    1.9320    0.6370 o         1 MOL     -0.599797
     15 H4         -1.6540    3.6630    4.4720 hn        1 MOL      0.292944
     16 H5         -1.3690    3.0520    1.8590 h1        1 MOL      0.049340
     17 H6         -3.8610    3.7850    3.2900 hc        1 MOL     -0.025197
     18 H7         -3.1030    2.2260    3.2420 hc        1 MOL     -0.025197
     19 N2         -2.3640    4.6710    0.0550 n         1 MOL     -0.657854
     20 C7         -2.9570    5.5620   -0.9280 c3        1 MOL      0.520970
     21 C8         -3.5980    4.8220   -2.1320 c         1 MOL      0.419426
     22 O5         -3.3110    5.2110   -3.3240 o         1 MOL     -0.540079
     23 C9         -2.0460    6.6980   -1.3250 c3        1 MOL     -0.317606
     24 H8         -2.0690    3.7580   -0.2480 hn        1 MOL      0.337447
     25 H9         -3.8370    5.9690   -0.4210 h1        1 MOL     -0.056652
     26 H10        -1.1960    6.3970   -1.9470 hc        1 MOL      0.061306
     27 H11        -2.7210    7.2900   -1.9450 hc        1 MOL      0.061306
     28 H12        -1.7600    7.2420   -0.4320 hc        1 MOL      0.061306
     29 N3         -4.2800    3.6880   -1.9590 n         1 MOL     -0.534831
     30 C10        -4.9710    3.0370   -3.0450 c3        1 MOL      0.227908
     31 C11        -6.2410    2.2880   -2.5070 c         1 MOL      0.310017
     32 O6         -7.0030    1.7120   -3.3250 o         1 MOL     -0.518508
     33 C12        -3.9960    2.1030   -3.8290 c3        1 MOL     -0.178708
     34 C13        -3.2810    1.0850   -2.9520 c         1 MOL      0.663812
     35 O7         -3.8820    0.6430   -1.9850 o         1 MOL     -0.704236
     36 O8         -2.0080    0.9290   -3.0150 o         1 MOL     -0.704236
     37 H13        -4.2380    3.1770   -1.0950 hn        1 MOL      0.408799
     38 H14        -5.4450    3.7090   -3.7650 h1        1 MOL      0.039852
     39 H15        -3.2850    2.7070   -4.3960 hc        1 MOL      0.048115
     40 H16        -4.6800    1.5760   -4.4980 hc        1 MOL      0.048115
     41 N4         -6.3390    2.1590   -1.1450 n         1 MOL     -0.179328
     42 C14        -7.4080    1.3790   -0.4980 c3        1 MOL     -0.094826
     43 C15        -7.4070   -0.1940   -0.8200 c         1 MOL      0.337464
     44 O9         -8.4170   -0.8760   -0.5280 o         1 MOL     -0.575655
     45 H17        -5.7030    2.6690   -0.5410 hn        1 MOL      0.082496
     46 H18        -8.4110    1.7010   -0.7510 h1        1 MOL      0.094655
     47 H19        -7.3480    1.6350    0.5610 h1        1 MOL      0.094655
     48 N5         -6.3130   -0.8560   -1.2380 n         1 MOL     -0.000634
     49 C16        -6.3840   -2.1950   -1.6570 c3        1 MOL     -0.047131
     50 C17        -6.3830   -3.2670   -0.5330 c         1 MOL      0.522495
     51 O10        -6.8450   -4.3290   -0.8290 o         1 MOL     -0.560252
     52 C18        -5.2470   -2.3530   -2.7450 c3        1 MOL     -0.211619
     53 C19        -3.8510   -2.3940   -2.1780 c         1 MOL      0.651874
     54 N6         -2.8900   -2.4030   -3.0660 n         1 MOL     -0.731616
     55 O11        -3.5820   -2.2980   -0.9480 o         1 MOL     -0.477292
     56 H20        -5.4550   -0.3290   -1.2520 hn        1 MOL      0.117853
     57 H21        -7.3430   -2.3910   -2.1280 h1        1 MOL      0.098522
     58 H22        -5.3190   -1.5300   -3.4520 hc        1 MOL      0.064527
     59 H23        -5.3910   -3.2580   -3.3450 hc        1 MOL      0.064527
     60 H24        -3.0170   -2.6360   -4.0350 hn        1 MOL      0.359886
     61 H25        -1.9510   -2.2400   -2.7130 hn        1 MOL      0.359886
     62 N7         -5.9850   -2.9310    0.6740 n         1 MOL     -0.231423
     63 C20        -6.1480   -3.8780    1.8110 c3        1 MOL     -0.136066
     64 C21        -4.7810   -4.5480    2.1310 c         1 MOL      0.521414
     65 O12        -4.7380   -5.4180    3.0270 o         1 MOL     -0.601843
     66 H26        -5.6700   -1.9800    0.8280 hn        1 MOL      0.156083
     67 H27        -6.9210   -4.6470    1.7220 h1        1 MOL      0.095976
     68 H28        -6.3990   -3.3380    2.7210 h1        1 MOL      0.095976
     69 N8         -3.7100   -4.2000    1.3810 n         1 MOL     -0.196796
     70 C22        -2.3170   -4.6740    1.5990 c3        1 MOL     -0.021053
     71 C23        -1.3250   -3.4980    1.5490 c         1 MOL      0.261205
     72 O13        -1.6270   -2.5110    0.9340 o         1 MOL     -0.311437
     73 C24        -1.8580   -5.6000    0.4210 c3        1 MOL      0.517471
     74 C25        -2.4820   -6.9890    0.5750 c3        1 MOL     -0.423120
     75 O14        -2.1810   -5.0990   -0.8430 oh        1 MOL     -0.598146
     76 H29        -3.8250   -3.4480    0.7230 hn        1 MOL      0.057356
     77 H30        -2.2820   -5.2210    2.5330 h1        1 MOL      0.059532
     78 H31        -0.7850   -5.6990    0.5650 h1        1 MOL     -0.056940
     79 H32        -1.8980   -4.1900   -0.8750 ho        1 MOL      0.323941
     80 H33        -1.9560   -7.4840    1.3960 hc        1 MOL      0.099630
     81 H34        -3.5350   -6.8430    0.8460 hc        1 MOL      0.099630
     82 H35        -2.4410   -7.5870   -0.3260 hc        1 MOL      0.099630
     83 N9         -0.1920   -3.6730    2.1840 n         1 MOL     -0.347223
     84 C26         1.0370   -2.8600    2.0390 c3        1 MOL      0.022043
     85 C27         1.8340   -3.2140    0.7800 c         1 MOL      0.566787
     86 O15         2.3230   -4.3410    0.6390 o         1 MOL     -0.643851
     87 C28         1.7900   -2.5890    3.3630 c3        1 MOL      0.058793
     88 C29         0.9020   -1.6480    4.2040 c3        1 MOL      0.087047
     89 C30         3.2190   -2.0400    3.1560 c3        1 MOL     -0.399068
     90 C31         1.3280   -1.4270    5.6850 c3        1 MOL     -0.152983
     91 H36         0.0210   -4.4990    2.7340 hn        1 MOL      0.252418
     92 H37         0.6390   -1.8750    1.7870 h1        1 MOL     -0.012553
     93 H38         1.8730   -3.5720    3.8290 hc        1 MOL      0.023724
     94 H39        -0.1020   -2.0590    4.3050 hc        1 MOL     -0.015071
     95 H40         0.8110   -0.6610    3.7410 hc        1 MOL     -0.015071
     96 H41         3.1930   -1.0400    2.7210 hc        1 MOL      0.101123
     97 H42         3.6830   -1.8110    4.1180 hc        1 MOL      0.101123
     98 H43         3.7840   -2.6700    2.4770 hc        1 MOL      0.101123
     99 H44         2.1470   -0.7160    5.7500 hc        1 MOL      0.028481
    100 H45         0.5330   -1.0440    6.3270 hc        1 MOL      0.028481
    101 H46         1.6720   -2.3740    6.1200 hc        1 MOL      0.028481
    102 N10         1.9740   -2.2950   -0.0710 n         1 MOL     -0.149157
    103 C32         2.7410   -2.3080   -1.3580 c3        1 MOL     -0.008201
    104 C33         4.0910   -1.6060   -1.1040 c         1 MOL      0.404929
    105 O16         4.2500   -0.7900   -0.1250 o         1 MOL     -0.367986
    106 C34         1.9250   -1.5960   -2.4530 c3        1 MOL     -0.171856
    107 C35         0.4950   -1.9740   -2.6460 c         1 MOL      0.701055
    108 O17        -0.3170   -1.7390   -1.7460 o         1 MOL     -0.698060
    109 O18         0.1580   -2.4810   -3.7890 o         1 MOL     -0.698060
    110 H47         1.7030   -1.3610    0.2130 hn        1 MOL      0.144692
    111 H48         2.8350   -3.3410   -1.7030 h1        1 MOL      0.087026
    112 H49         2.4540   -1.5550   -3.4060 hc        1 MOL      0.056506
    113 H50         1.8030   -0.5500   -2.1800 hc        1 MOL      0.056506
    114 N11         5.1420   -1.8530   -1.8790 n         1 MOL     -0.652044
    115 C36         6.4800   -1.5330   -1.4710 c3        1 MOL      0.570853
    116 C37         6.7230   -0.0640   -0.9810 c         1 MOL      0.326912
    117 O19         7.1430    0.1050    0.1490 o         1 MOL     -0.515906
    118 C38         7.5380   -1.9990   -2.5700 c3        1 MOL     -0.500229
    119 C39         9.0200   -1.6970   -2.2690 ca        1 MOL      0.265870
    120 C40         9.4440   -2.2730   -1.1280 ca        1 MOL     -0.236697
    121 C41         9.8400   -0.9280   -3.0900 ca        1 MOL     -0.236697
    122 C42        10.7060   -1.9270   -0.6260 ca        1 MOL     -0.098664
    123 C43        11.1400   -0.5970   -2.6200 ca        1 MOL     -0.098664
    124 C44        11.5070   -1.0310   -1.3750 ca        1 MOL     -0.108743
    125 H51         5.0310   -2.5460   -2.6090 hn        1 MOL      0.337657
    126 H52         6.6370   -2.1430   -0.5730 h1        1 MOL      0.012322
    127 H53         7.3250   -1.5750   -3.5460 hc        1 MOL      0.116192
    128 H54         7.3770   -3.0700   -2.4540 hc        1 MOL      0.116192
    129 H55         8.7610   -2.8410   -0.5070 ha        1 MOL      0.137724
    130 H56         9.4550   -0.5210   -4.0130 ha        1 MOL      0.137724
    131 H57        11.0050   -2.3050    0.3420 ha        1 MOL      0.115967
    132 H58        11.7510    0.0160   -3.2590 ha        1 MOL      0.115967
    133 H59        12.4660   -0.7910   -0.9460 ha        1 MOL      0.093693
    134 N12         6.2720    1.0070   -1.6390 n         1 MOL     -0.167923
    135 C45         6.4590    2.3660   -1.1920 c3        1 MOL      0.142388
    136 C46         5.7630    2.6620    0.0870 c         1 MOL      0.199373
    137 O20         6.1510    3.6440    0.7100 o         1 MOL     -0.530201
    138 C47         5.9820    3.3150   -2.3360 c3        1 MOL     -0.165061
    139 C48         6.0670    2.3430   -3.4630 c3        1 MOL      0.013294
    140 C49         5.7040    0.9940   -2.9540 c3        1 MOL      0.006191
    141 H60         7.5200    2.5700   -1.0230 h1        1 MOL      0.064786
    142 H61         4.9400    3.5580   -2.1350 hc        1 MOL      0.086806
    143 H62         6.6140    4.1890   -2.5020 hc        1 MOL      0.086806
    144 H63         5.3200    2.6040   -4.2110 hc        1 MOL      0.003415
    145 H64         7.0320    2.2970   -3.9690 hc        1 MOL      0.003415
    146 H65         4.6240    0.8870   -2.9210 h1        1 MOL      0.047933
    147 H66         6.0600    0.2480   -3.6710 h1        1 MOL      0.047933
    148 N13         4.7180    1.9730    0.5190 n         1 MOL      0.104935
    149 C50         3.9880    2.1720    1.8130 c3        1 MOL     -0.137908
    150 C51         4.8500    1.3460    2.9620 c         1 MOL      0.389575
    151 O21         4.8640    1.8040    4.0920 o         1 MOL     -0.529435
    152 C52         2.6100    1.6220    1.6640 c3        1 MOL      0.015998
    153 C53         1.7940    2.3640    0.5920 c3        1 MOL      0.026160
    154 C54         0.5510    1.5680    0.2220 c         1 MOL      0.705661
    155 O22         0.4470    0.3190    0.2700 o         1 MOL     -0.726164
    156 O23        -0.4690    2.1460   -0.2090 o         1 MOL     -0.726164
    157 H67         4.5140    1.0960    0.0710 hn        1 MOL      0.034749
    158 H68         3.9350    3.2260    2.0730 h1        1 MOL      0.116224
    159 H69         2.0490    1.7260    2.5900 hc        1 MOL      0.020775
    160 H70         2.6810    0.5510    1.4860 hc        1 MOL      0.020775
    161 H71         2.4590    2.5790   -0.2510 hc        1 MOL     -0.010284
    162 H72         1.4670    3.3410    0.9460 hc        1 MOL     -0.010284
    163 N14         5.6250    0.2770    2.6180 n         1 MOL      0.010572
    164 C55         6.4920   -0.2940    3.6420 c3        1 MOL     -0.082690
    165 H73         7.5240   -0.2820    3.2910 h1        1 MOL      0.037315
    166 H74         6.4120    0.2930    4.5560 h1        1 MOL      0.037315
    167 H75         6.1900   -1.3220    3.8420 h1        1 MOL      0.037315
    168 H76         5.6440   -0.1260    1.6920 hn        1 MOL      0.070074
    169 Ca1        -2.0570   -0.1360   -0.3440 Ca        1 MOL      1.692575
    170 O24        -1.8600    0.1700    2.5020 oh        1 MOL     -0.772758
    171 H77        -1.2460    0.8040    2.8620 ho        1 MOL      0.387393
    172 H78        -2.5220    0.0500    3.1850 ho        1 MOL      0.387393
    173 O25        -4.6010   -0.6120    1.5450 oh        1 MOL     -0.772758
    174 H79        -5.4880   -0.7740    1.8760 ho        1 MOL      0.387393
    175 H80        -4.4070    0.2900    1.8190 ho        1 MOL      0.387393
@<TRIPOS>BOND
     1    1    2 1   
     2    1    4 1   
     3    1    5 1   
     4    1    6 1   
     5    2    3 2   
     6    2    7 1   
     7    7    8 1   
     8    7   15 1   
     9    8    9 1   
    10    8   11 1   
    11    8   16 1   
    12    9   10 2   
    13    9   19 1   
    14   11   12 1   
    15   11   17 1   
    16   11   18 1   
    17   12   13 1   
    18   12   14 1   
    19   19   20 1   
    20   19   24 1   
    21   20   21 1   
    22   20   23 1   
    23   20   25 1   
    24   21   22 2   
    25   21   29 1   
    26   23   26 1   
    27   23   27 1   
    28   23   28 1   
    29   29   30 1   
    30   29   37 1   
    31   30   31 1   
    32   30   33 1   
    33   30   38 1   
    34   31   32 2   
    35   31   41 1   
    36   33   34 1   
    37   33   39 1   
    38   33   40 1   
    39   34   35 1   
    40   34   36 1   
    41   41   42 1   
    42   41   45 1   
    43   42   43 1   
    44   42   46 1   
    45   42   47 1   
    46   43   44 2   
    47   43   48 1   
    48   48   49 1   
    49   48   56 1   
    50   49   50 1   
    51   49   52 1   
    52   49   57 1   
    53   50   51 2   
    54   50   62 1   
    55   52   53 1   
    56   52   58 1   
    57   52   59 1   
    58   53   54 1   
    59   53   55 2   
    60   54   60 1   
    61   54   61 1   
    62   62   63 1   
    63   62   66 1   
    64   63   64 1   
    65   63   67 1   
    66   63   68 1   
    67   64   65 2   
    68   64   69 1   
    69   69   70 1   
    70   69   76 1   
    71   70   71 1   
    72   70   73 1   
    73   70   77 1   
    74   71   72 2   
    75   71   83 1   
    76   73   74 1   
    77   73   75 1   
    78   73   78 1   
    79   74   80 1   
    80   74   81 1   
    81   74   82 1   
    82   75   79 1   
    83   83   84 1   
    84   83   91 1   
    85   84   85 1   
    86   84   87 1   
    87   84   92 1   
    88   85   86 2   
    89   85  102 1   
    90   87   88 1   
    91   87   89 1   
    92   87   93 1   
    93   88   90 1   
    94   88   94 1   
    95   88   95 1   
    96   89   96 1   
    97   89   97 1   
    98   89   98 1   
    99   90   99 1   
   100   90  100 1   
   101   90  101 1   
   102  102  103 1   
   103  102  110 1   
   104  103  104 1   
   105  103  106 1   
   106  103  111 1   
   107  104  105 2   
   108  104  114 1   
   109  106  107 1   
   110  106  112 1   
   111  106  113 1   
   112  107  108 1   
   113  107  109 1   
   114  114  115 1   
   115  114  125 1   
   116  115  116 1   
   117  115  118 1   
   118  115  126 1   
   119  116  117 2   
   120  116  134 1   
   121  118  119 1   
   122  118  127 1   
   123  118  128 1   
   124  119  120 ar  
   125  119  121 ar  
   126  120  122 ar  
   127  120  129 1   
   128  121  123 ar  
   129  121  130 1   
   130  122  124 ar  
   131  122  131 1   
   132  123  124 ar  
   133  123  132 1   
   134  124  133 1   
   135  134  135 1   
   136  134  140 1   
   137  135  136 1   
   138  135  138 1   
   139  135  141 1   
   140  136  137 2   
   141  136  148 1   
   142  138  139 1   
   143  138  142 1   
   144  138  143 1   
   145  139  140 1   
   146  139  144 1   
   147  139  145 1   
   148  140  146 1   
   149  140  147 1   
   150  148  149 1   
   151  148  157 1   
   152  149  150 1   
   153  149  152 1   
   154  149  158 1   
   155  150  151 2   
   156  150  163 1   
   157  152  153 1   
   158  152  159 1   
   159  152  160 1   
   160  153  154 1   
   161  153  161 1   
   162  153  162 1   
   163  154  155 1   
   164  154  156 1   
   165  163  164 1   
   166  163  168 1   
   167  164  165 1   
   168  164  166 1   
   169  164  167 1   
   170  170  171 1   
   171  170  172 1   
   172  173  174 1   
   173  173  175 1   
@<TRIPOS>SUBSTRUCTURE
     1 MOL         1 TEMP              0 ****  ****    0 ROOT
