@<TRIPOS>MOLECULE
MOL
  179   176     1     0     0
SMALL
resp


@<TRIPOS>ATOM
      1 C1          2.9050    2.0690    4.9420 c3        1 MOL     -0.351715
      2 C2          1.9910    2.2950    3.7230 c         1 MOL      0.677324
      3 O1          2.4840    2.7590    2.7120 o         1 MOL     -0.589099
      4 H1          2.6280    2.7600    5.7370 hc        1 MOL      0.094973
      5 H2          2.7920    1.0440    5.2960 hc        1 MOL      0.094973
      6 H3          3.9430    2.2420    4.6550 hc        1 MOL      0.094973
      7 N1          0.6470    2.0540    3.8670 n         1 MOL     -0.484104
      8 C3         -0.2720    2.2100    2.8010 c3        1 MOL      0.163701
      9 C4         -0.4480    3.6770    2.2320 c         1 MOL      0.334739
     10 O2         -1.1720    4.5420    2.8250 o         1 MOL     -0.514489
     11 C5         -1.6130    1.4790    3.2420 c3        1 MOL     -0.239247
     12 C6         -2.6040    1.3910    2.0710 c         1 MOL      0.923044
     13 O3         -3.7590    1.1080    2.3240 o         1 MOL     -0.802465
     14 O4         -2.2520    1.4470    0.8330 o         1 MOL     -0.802465
     15 H4          0.2810    1.7690    4.7580 hn        1 MOL      0.281308
     16 H5          0.0730    1.6600    1.9320 h1        1 MOL     -0.043916
     17 H6         -2.1050    2.0650    4.0150 hc        1 MOL      0.072348
     18 H7         -1.4480    0.4570    3.5640 hc        1 MOL      0.072348
     19 N2          0.1160    3.9950    1.0500 n         1 MOL     -0.055353
     20 C7          0.1890    5.4100    0.5440 c3        1 MOL     -0.095046
     21 C8         -1.0910    5.8790   -0.1240 c         1 MOL      0.405419
     22 O5         -1.5580    7.0270   -0.0660 o         1 MOL     -0.538443
     23 C9          1.2490    5.6790   -0.4850 c3        1 MOL     -0.055395
     24 C10         2.6640    5.4990    0.0760 c3        1 MOL     -0.028963
     25 C11         3.7120    5.7510   -1.0370 c3        1 MOL     -0.102049
     26 C12         5.1040    5.5920   -0.4790 c3        1 MOL      0.263276
     27 N3          6.0570    5.9150   -1.5280 n4        1 MOL     -0.438220
     28 H8          0.6400    3.3180    0.5210 hn        1 MOL      0.158489
     29 H9          0.2770    6.0710    1.4060 h1        1 MOL      0.110342
     30 H10         1.1730    6.6910   -0.8900 hc        1 MOL      0.060060
     31 H11         1.1740    5.1500   -1.4340 hc        1 MOL      0.060060
     32 H12         2.8940    4.4800    0.3940 hc        1 MOL      0.046205
     33 H13         2.7230    6.1690    0.9340 hc        1 MOL      0.046205
     34 H14         3.6050    6.7650   -1.4220 hc        1 MOL      0.030506
     35 H15         3.5810    5.0340   -1.8420 hc        1 MOL      0.030506
     36 H16         5.3670    4.6450   -0.0210 hx        1 MOL      0.021344
     37 H17         5.1500    6.3830    0.2790 hx        1 MOL      0.021344
     38 H18         6.0430    5.2610   -2.2940 hn        1 MOL      0.338307
     39 H19         5.7960    6.8450   -1.8330 hn        1 MOL      0.338307
     40 H20         6.9880    5.9620   -1.1400 hn        1 MOL      0.338307
     41 N4         -1.8460    4.9160   -0.7910 n         1 MOL     -0.224166
     42 C13        -3.0460    5.1690   -1.4490 c3        1 MOL     -0.034573
     43 C14        -4.2910    4.5550   -0.8420 c         1 MOL      0.417414
     44 O6         -5.3100    4.4600   -1.5330 o         1 MOL     -0.521133
     45 C15        -2.8810    4.7770   -2.9190 c3        1 MOL      0.005191
     46 C16        -2.7180    3.2730   -3.1190 c         1 MOL      0.717560
     47 O7         -2.3660    2.5620   -2.1590 o         1 MOL     -0.706615
     48 O8         -2.9610    2.8870   -4.2650 o         1 MOL     -0.706615
     49 H21        -1.4780    3.9800   -0.9400 hn        1 MOL      0.111895
     50 H22        -3.2280    6.2420   -1.4480 h1        1 MOL      0.100065
     51 H23        -2.0830    5.3040   -3.4510 hc        1 MOL      0.001035
     52 H24        -3.7680    5.1360   -3.4480 hc        1 MOL      0.001035
     53 N5         -4.2920    4.2660    0.4380 n         1 MOL     -0.152438
     54 C17        -5.4770    3.8550    1.2150 c3        1 MOL     -0.414217
     55 C18        -6.1350    2.5360    0.8290 c         1 MOL      0.668802
     56 O9         -7.1350    2.2060    1.4450 o         1 MOL     -0.618331
     57 H25        -3.4480    4.3970    0.9800 hn        1 MOL      0.252791
     58 H26        -6.1870    4.6600    1.0280 h1        1 MOL      0.165280
     59 H27        -5.2320    3.7270    2.2650 h1        1 MOL      0.165280
     60 N6         -5.6820    1.8660   -0.2040 n         1 MOL     -0.047454
     61 C19        -6.4630    0.7960   -0.8370 c3        1 MOL     -0.359326
     62 C20        -6.5660   -0.4950   -0.1140 c         1 MOL      0.432024
     63 O10        -7.1520   -1.4570   -0.6550 o         1 MOL     -0.469052
     64 C21        -5.9490    0.6680   -2.3750 c3        1 MOL      0.033524
     65 C22        -4.7740   -0.2980   -2.5050 c         1 MOL      0.607104
     66 N7         -4.6400   -1.0060   -3.5900 n         1 MOL     -0.790428
     67 O11        -3.9020   -0.4600   -1.6330 o         1 MOL     -0.619639
     68 H28        -4.8070    2.2280   -0.5570 hn        1 MOL     -0.020199
     69 H29        -7.4890    1.1630   -0.8630 h1        1 MOL      0.180517
     70 H30        -5.7330    1.6350   -2.8100 hc        1 MOL      0.073522
     71 H31        -6.7740    0.3320   -3.0090 hc        1 MOL      0.073522
     72 H32        -5.3050   -1.1570   -4.3290 hn        1 MOL      0.371389
     73 H33        -3.8220   -1.5880   -3.7180 hn        1 MOL      0.371389
     74 N8         -6.0780   -0.5020    1.1380 n         1 MOL     -0.226815
     75 C23        -6.1470   -1.6490    2.1300 c3        1 MOL     -0.230481
     76 C24        -5.0360   -2.6590    2.1240 c         1 MOL      0.487212
     77 O12        -5.1760   -3.8160    2.5260 o         1 MOL     -0.541401
     78 H34        -5.4180    0.2370    1.3350 hn        1 MOL      0.382084
     79 H35        -7.0800   -2.1830    1.9330 h1        1 MOL      0.130208
     80 H36        -6.2480   -1.1400    3.0960 h1        1 MOL      0.130208
     81 N9         -3.9560   -2.3670    1.4410 n         1 MOL     -0.125345
     82 C25        -2.8650   -3.2930    1.2710 c3        1 MOL     -0.080699
     83 C26        -1.4980   -2.5930    1.3530 c         1 MOL      0.425958
     84 O13        -1.3280   -1.4690    0.8010 o         1 MOL     -0.588366
     85 C27        -2.9550   -3.9140   -0.1010 c3        1 MOL      0.316431
     86 C28        -4.1840   -4.8080   -0.4070 ca        1 MOL     -0.218427
     87 C29        -5.2390   -4.3050   -1.2230 ca        1 MOL     -0.060626
     88 C30        -4.3370   -6.1860    0.0760 ca        1 MOL     -0.060626
     89 C31        -6.3730   -5.0250   -1.4860 ca        1 MOL     -0.272904
     90 C32        -5.4970   -6.8750   -0.2600 ca        1 MOL     -0.272904
     91 C33        -6.4640   -6.3000   -1.0700 ca        1 MOL      0.396548
     92 O14        -7.5720   -7.0440   -1.4630 oh        1 MOL     -0.505822
     93 H37        -3.9260   -1.4400    1.0460 hn        1 MOL      0.135763
     94 H38        -2.9140   -4.1340    1.9530 h1        1 MOL      0.075017
     95 H39        -2.0140   -4.4040   -0.3420 hc        1 MOL     -0.058339
     96 H40        -2.9320   -3.0660   -0.8000 hc        1 MOL     -0.058339
     97 H41        -5.1690   -3.3200   -1.6610 ha        1 MOL      0.102731
     98 H42        -3.5380   -6.7310    0.5590 ha        1 MOL      0.102731
     99 H43        -7.2060   -4.6000   -2.0250 ha        1 MOL      0.147070
    100 H44        -5.6940   -7.8370    0.1950 ha        1 MOL      0.147070
    101 H45        -7.5600   -7.8310   -0.9140 ho        1 MOL      0.341217
    102 N10        -0.4570   -3.3000    1.8860 n         1 MOL     -0.283539
    103 C34         0.9320   -2.9880    1.7590 c3        1 MOL     -0.020680
    104 C35         1.6110   -3.9170    0.6470 c         1 MOL      0.467434
    105 O15         1.4810   -5.1550    0.5790 o         1 MOL     -0.546583
    106 C36         1.7190   -3.1240    3.0880 c3        1 MOL      0.033985
    107 C37         0.9780   -2.3950    4.1950 c3        1 MOL      0.178888
    108 C38         3.1060   -2.5500    2.8840 c3        1 MOL     -0.037643
    109 C39         1.5630   -2.8730    5.5080 c3        1 MOL     -0.309848
    110 H46        -0.7470   -4.2010    2.2350 hn        1 MOL      0.248392
    111 H47         1.0570   -2.0010    1.3070 h1        1 MOL      0.129450
    112 H48         1.7180   -4.1990    3.2640 hc        1 MOL      0.027142
    113 H49        -0.0920   -2.5650    4.1240 hc        1 MOL     -0.030856
    114 H50         1.0000   -1.3080    4.1960 hc        1 MOL     -0.030856
    115 H51         3.1140   -1.4880    2.6460 hc        1 MOL      0.003561
    116 H52         3.7370   -2.7780    3.7470 hc        1 MOL      0.003561
    117 H53         3.5000   -3.1770    2.0880 hc        1 MOL      0.003561
    118 H54         1.1160   -2.4270    6.3950 hc        1 MOL      0.068741
    119 H55         1.4880   -3.9540    5.5270 hc        1 MOL      0.068741
    120 H56         2.6090   -2.5750    5.5790 hc        1 MOL      0.068741
    121 N11         2.2570   -3.2140   -0.2560 n         1 MOL     -0.049781
    122 C40         3.0910   -3.6630   -1.3170 c3        1 MOL      0.021062
    123 C41         4.6270   -3.4890   -0.9170 c         1 MOL      0.420673
    124 O16         4.9640   -2.6610   -0.0390 o         1 MOL     -0.318149
    125 C42         2.8670   -2.9520   -2.6210 c3        1 MOL      0.174213
    126 O17         3.0720   -1.6110   -2.5640 oh        1 MOL     -0.616725
    127 H57         2.4280   -2.2280   -0.1020 hn        1 MOL     -0.184593
    128 H58         2.9690   -4.7260   -1.4880 h1        1 MOL      0.031568
    129 H59         1.8080   -3.1120   -2.8550 h1        1 MOL      0.004853
    130 H60         3.4550   -3.4940   -3.3580 h1        1 MOL      0.004853
    131 H61         2.3320   -1.1450   -2.1600 ho        1 MOL      0.478007
    132 N12         5.4350   -4.2550   -1.6670 n         1 MOL     -0.423353
    133 C43         6.9490   -4.2580   -1.5200 c3        1 MOL      0.064613
    134 C44         7.6390   -2.8440   -1.5010 c         1 MOL      0.437090
    135 O18         8.4450   -2.5370   -0.6490 o         1 MOL     -0.515372
    136 C45         7.5500   -5.2080   -2.5620 c3        1 MOL     -0.137203
    137 H62         5.1050   -4.6880   -2.5150 hn        1 MOL      0.291754
    138 H63         7.0570   -4.6830   -0.5190 h1        1 MOL      0.088225
    139 H64         8.6030   -5.4180   -2.3240 hc        1 MOL      0.053489
    140 H65         7.0640   -6.1760   -2.6360 hc        1 MOL      0.053489
    141 H66         7.6050   -4.6310   -3.4800 hc        1 MOL      0.053489
    142 N13         7.1390   -1.9650   -2.3110 n         1 MOL     -0.259559
    143 C46         7.4890   -0.5120   -2.3950 c3        1 MOL      0.030302
    144 C47         7.0600    0.3400   -1.2220 c         1 MOL      0.363742
    145 O19         7.7250    1.2640   -0.8090 o         1 MOL     -0.533529
    146 C48         7.0150    0.0890   -3.7190 c3        1 MOL     -0.391895
    147 H67         6.5860   -2.3270   -3.0830 hn        1 MOL      0.253030
    148 H68         8.5700   -0.3980   -2.4010 h1        1 MOL      0.102178
    149 H69         7.4360   -0.4880   -4.5450 hc        1 MOL      0.113687
    150 H70         5.9350    0.2750   -3.7730 hc        1 MOL      0.113687
    151 H71         7.5230    1.0530   -3.7350 hc        1 MOL      0.113687
    152 N14         5.9540    0.0290   -0.6500 n         1 MOL      0.098186
    153 C49         5.3590    0.7160    0.4870 c3        1 MOL     -0.428301
    154 C50         6.0000    0.2390    1.7860 c         1 MOL      0.506181
    155 O20         6.3370    1.0750    2.6110 o         1 MOL     -0.550328
    156 C51         3.8180    0.4900    0.4770 c3        1 MOL      0.259972
    157 C52         3.2410    1.2640   -0.6840 c3        1 MOL     -0.146197
    158 C53         1.7610    1.0030   -0.8030 c         1 MOL      0.743508
    159 O21         0.9070    1.9060   -1.0370 o         1 MOL     -0.706451
    160 O22         1.3440   -0.1680   -0.7300 o         1 MOL     -0.706451
    161 H72         5.3900   -0.7570   -0.9370 hn        1 MOL      0.054156
    162 H73         5.5690    1.7850    0.4210 h1        1 MOL      0.174105
    163 H74         3.3760    0.9170    1.3840 hc        1 MOL      0.018890
    164 H75         3.5560   -0.5660    0.4800 hc        1 MOL      0.018890
    165 H76         3.7000    0.9660   -1.6310 hc        1 MOL      0.001801
    166 H77         3.4730    2.3050   -0.5130 hc        1 MOL      0.001801
    167 N15         6.2710   -1.0480    1.9550 n         1 MOL     -0.059826
    168 C54         6.9810   -1.5650    3.1480 c3        1 MOL     -0.245802
    169 H78         6.7890   -0.9090    3.9970 h1        1 MOL      0.100795
    170 H79         6.6240   -2.5690    3.3780 h1        1 MOL      0.100795
    171 H80         8.0530   -1.5960    2.9490 h1        1 MOL      0.100795
    172 H81         5.9690   -1.7080    1.2600 hn        1 MOL      0.085704
    173 Ca1        -1.3760    0.2870   -1.3030 Ca        1 MOL      1.756017
    174 O23        -0.4920    0.6610   -3.8820 oh        1 MOL     -0.851748
    175 H82        -1.2610    0.8140   -4.4210 ho        1 MOL      0.405946
    176 H83         0.1740    0.3270   -4.4890 ho        1 MOL      0.405946
    177 O24        -1.0500   -1.9000   -2.5920 oh        1 MOL     -0.851748
    178 H84        -0.3010   -2.0940   -3.1470 ho        1 MOL      0.405946
    179 H85        -1.6420   -2.6450   -2.6930 ho        1 MOL      0.405946
@<TRIPOS>BOND
     1    1    2 1   
     2    1    4 1   
     3    1    5 1   
     4    1    6 1   
     5    2    3 2   
     6    2    7 1   
     7    7    8 1   
     8    7   15 1   
     9    8    9 1   
    10    8   11 1   
    11    8   16 1   
    12    9   10 2   
    13    9   19 1   
    14   11   12 1   
    15   11   17 1   
    16   11   18 1   
    17   12   13 1   
    18   12   14 1   
    19   19   20 1   
    20   19   28 1   
    21   20   21 1   
    22   20   23 1   
    23   20   29 1   
    24   21   22 2   
    25   21   41 1   
    26   23   24 1   
    27   23   30 1   
    28   23   31 1   
    29   24   25 1   
    30   24   32 1   
    31   24   33 1   
    32   25   26 1   
    33   25   34 1   
    34   25   35 1   
    35   26   27 1   
    36   26   36 1   
    37   26   37 1   
    38   27   38 1   
    39   27   39 1   
    40   27   40 1   
    41   41   42 1   
    42   41   49 1   
    43   42   43 1   
    44   42   45 1   
    45   42   50 1   
    46   43   44 2   
    47   43   53 1   
    48   45   46 1   
    49   45   51 1   
    50   45   52 1   
    51   46   47 1   
    52   46   48 1   
    53   53   54 1   
    54   53   57 1   
    55   54   55 1   
    56   54   58 1   
    57   54   59 1   
    58   55   56 2   
    59   55   60 1   
    60   60   61 1   
    61   60   68 1   
    62   61   62 1   
    63   61   64 1   
    64   61   69 1   
    65   62   63 2   
    66   62   74 1   
    67   64   65 1   
    68   64   70 1   
    69   64   71 1   
    70   65   66 1   
    71   65   67 2   
    72   66   72 1   
    73   66   73 1   
    74   74   75 1   
    75   74   78 1   
    76   75   76 1   
    77   75   79 1   
    78   75   80 1   
    79   76   77 2   
    80   76   81 1   
    81   81   82 1   
    82   81   93 1   
    83   82   83 1   
    84   82   85 1   
    85   82   94 1   
    86   83   84 2   
    87   83  102 1   
    88   85   86 1   
    89   85   95 1   
    90   85   96 1   
    91   86   87 ar  
    92   86   88 ar  
    93   87   89 ar  
    94   87   97 1   
    95   88   90 ar  
    96   88   98 1   
    97   89   91 ar  
    98   89   99 1   
    99   90   91 ar  
   100   90  100 1   
   101   91   92 1   
   102   92  101 1   
   103  102  103 1   
   104  102  110 1   
   105  103  104 1   
   106  103  106 1   
   107  103  111 1   
   108  104  105 2   
   109  104  121 1   
   110  106  107 1   
   111  106  108 1   
   112  106  112 1   
   113  107  109 1   
   114  107  113 1   
   115  107  114 1   
   116  108  115 1   
   117  108  116 1   
   118  108  117 1   
   119  109  118 1   
   120  109  119 1   
   121  109  120 1   
   122  121  122 1   
   123  121  127 1   
   124  122  123 1   
   125  122  125 1   
   126  122  128 1   
   127  123  124 2   
   128  123  132 1   
   129  125  126 1   
   130  125  129 1   
   131  125  130 1   
   132  126  131 1   
   133  132  133 1   
   134  132  137 1   
   135  133  134 1   
   136  133  136 1   
   137  133  138 1   
   138  134  135 2   
   139  134  142 1   
   140  136  139 1   
   141  136  140 1   
   142  136  141 1   
   143  142  143 1   
   144  142  147 1   
   145  143  144 1   
   146  143  146 1   
   147  143  148 1   
   148  144  145 2   
   149  144  152 1   
   150  146  149 1   
   151  146  150 1   
   152  146  151 1   
   153  152  153 1   
   154  152  161 1   
   155  153  154 1   
   156  153  156 1   
   157  153  162 1   
   158  154  155 2   
   159  154  167 1   
   160  156  157 1   
   161  156  163 1   
   162  156  164 1   
   163  157  158 1   
   164  157  165 1   
   165  157  166 1   
   166  158  159 1   
   167  158  160 1   
   168  167  168 1   
   169  167  172 1   
   170  168  169 1   
   171  168  170 1   
   172  168  171 1   
   173  174  175 1   
   174  174  176 1   
   175  177  178 1   
   176  177  179 1   
@<TRIPOS>SUBSTRUCTURE
     1 MOL         1 TEMP              0 ****  ****    0 ROOT
