@<TRIPOS>MOLECULE
MOL
  189   185     1     0     0
SMALL
resp


@<TRIPOS>ATOM
      1 C1          0.1580   -4.0030    5.8910 c3        1 MOL     -0.327723
      2 C2          0.5540   -3.5010    4.4860 c         1 MOL      0.760650
      3 O1          0.5100   -2.3500    4.1360 o         1 MOL     -0.599998
      4 H1          0.9930   -3.8560    6.5770 hc        1 MOL      0.079360
      5 H2         -0.7060   -3.4430    6.2470 hc        1 MOL      0.079360
      6 H3         -0.0900   -5.0630    5.8420 hc        1 MOL      0.079360
      7 N1          1.1650   -4.4780    3.7680 n         1 MOL     -0.707106
      8 C3          1.6670   -4.1170    2.4390 c3        1 MOL      0.499874
      9 C4          1.4400   -5.1430    1.3570 c         1 MOL      0.265303
     10 O2          1.6190   -6.3760    1.5220 o         1 MOL     -0.550868
     11 C5          3.1590   -3.8050    2.5750 c3        1 MOL     -0.195799
     12 C6          3.8080   -3.4830    1.2140 c         1 MOL      0.707232
     13 O3          4.6840   -4.3070    0.8220 o         1 MOL     -0.665274
     14 O4          3.4370   -2.5540    0.4820 o         1 MOL     -0.665274
     15 H4          1.2690   -5.4320    4.0890 hn        1 MOL      0.337697
     16 H5          1.2390   -3.1440    2.1840 h1        1 MOL     -0.027510
     17 H6          3.6370   -4.6940    2.9750 hc        1 MOL      0.005456
     18 H7          3.4350   -2.9690    3.2250 hc        1 MOL      0.005456
     19 N2          1.1820   -4.7040    0.0890 n         1 MOL     -0.024348
     20 C7          0.9420   -5.4430   -1.1420 c3        1 MOL     -0.085305
     21 C8          2.0130   -5.1440   -2.3430 c         1 MOL      0.571852
     22 O5          2.1360   -5.9900   -3.2820 o         1 MOL     -0.607611
     23 C9         -0.4940   -5.1100   -1.5170 c3        1 MOL      0.228434
     24 C10        -1.6060   -5.3730   -0.3970 c3        1 MOL     -0.179198
     25 C11        -0.8880   -5.9300   -2.8100 c3        1 MOL     -0.308342
     26 C12        -2.9510   -4.6150   -0.6260 c3        1 MOL     -0.142649
     27 H8          1.0420   -3.7110    0.0080 hn        1 MOL     -0.077096
     28 H9          0.9010   -6.5210   -0.9860 h1        1 MOL      0.065551
     29 H10        -0.5860   -4.0920   -1.8930 hc        1 MOL      0.058516
     30 H11        -1.2660   -4.9970    0.5650 hc        1 MOL      0.055935
     31 H12        -1.8530   -6.4120   -0.2060 hc        1 MOL      0.055935
     32 H13        -1.9660   -5.8190   -2.9460 hc        1 MOL      0.060706
     33 H14        -0.4380   -5.5030   -3.7010 hc        1 MOL      0.060706
     34 H15        -0.7700   -7.0130   -2.6910 hc        1 MOL      0.060706
     35 H16        -2.6590   -3.5880   -0.8410 hc        1 MOL      0.047239
     36 H17        -3.5270   -5.1100   -1.4080 hc        1 MOL      0.047239
     37 H18        -3.4840   -4.6340    0.3320 hc        1 MOL      0.047239
     38 N3          2.8120   -4.0770   -2.3440 n         1 MOL     -0.483989
     39 C13         3.6210   -3.6220   -3.4550 c3        1 MOL      0.177808
     40 C14         5.0030   -2.9620   -2.9730 c         1 MOL      0.303773
     41 O6          5.6440   -2.4340   -3.8190 o         1 MOL     -0.499717
     42 C15         2.8510   -2.5940   -4.1530 c3        1 MOL     -0.391668
     43 C16         2.2330   -1.4490   -3.3530 c         1 MOL      0.882807
     44 O7          2.5080   -1.2760   -2.1400 o         1 MOL     -0.760157
     45 O8          1.3380   -0.6880   -3.8320 o         1 MOL     -0.760157
     46 H19         2.7320   -3.5990   -1.4630 hn        1 MOL      0.356799
     47 H20         3.8250   -4.4850   -4.0970 h1        1 MOL      0.087661
     48 H21         1.9730   -3.1680   -4.4590 hc        1 MOL      0.090098
     49 H22         3.3760   -2.1230   -4.9870 hc        1 MOL      0.090098
     50 N4          5.4500   -3.0350   -1.6870 n         1 MOL     -0.088207
     51 C17         6.8500   -2.7720   -1.2990 c3        1 MOL     -0.145228
     52 C18         7.4160   -1.3310   -1.4100 c         1 MOL      0.401812
     53 O9          8.6310   -1.0800   -1.4010 o         1 MOL     -0.645611
     54 H23         4.8810   -3.4400   -0.9540 hn        1 MOL      0.084234
     55 H24         7.4550   -3.4810   -1.8650 h1        1 MOL      0.085388
     56 H25         6.8390   -3.0080   -0.2280 h1        1 MOL      0.085388
     57 N5          6.6490   -0.3230   -1.5150 n         1 MOL      0.055810
     58 C19         6.9750    1.0430   -1.8520 c3        1 MOL     -0.164162
     59 C20         7.2730    1.9140   -0.6370 c         1 MOL      0.521578
     60 O10         7.6930    3.0230   -0.8270 o         1 MOL     -0.543947
     61 C21         5.8320    1.6220   -2.7720 c3        1 MOL     -0.277988
     62 C22         4.4120    1.5770   -2.2460 c         1 MOL      0.875707
     63 O11         4.1310    1.0180   -1.1510 o         1 MOL     -0.712722
     64 O12         3.5280    2.1160   -2.9270 o         1 MOL     -0.712722
     65 H26         5.6580   -0.5200   -1.4320 hn        1 MOL      0.122169
     66 H27         7.8680    0.9840   -2.4750 h1        1 MOL      0.139298
     67 H28         5.8480    1.0610   -3.7090 hc        1 MOL      0.074145
     68 H29         6.1110    2.6630   -2.8670 hc        1 MOL      0.074145
     69 N6          7.1490    1.4400    0.5610 n         1 MOL     -0.335725
     70 C23         7.2140    2.2180    1.8340 c3        1 MOL     -0.084033
     71 C24         6.2490    3.3650    1.8210 c         1 MOL      0.535652
     72 O13         6.6400    4.3090    2.4460 o         1 MOL     -0.564910
     73 H30         6.9250    0.4580    0.6300 hn        1 MOL      0.230687
     74 H31         8.2210    2.6160    2.0010 h1        1 MOL      0.069953
     75 H32         6.8860    1.5060    2.5870 h1        1 MOL      0.069953
     76 N7          5.0360    3.1290    1.3170 n         1 MOL     -0.261168
     77 C25         3.8020    3.9340    1.4260 c3        1 MOL     -0.037174
     78 C26         2.5070    3.1790    1.5810 c         1 MOL      0.443220
     79 O14         2.4480    1.9950    1.3010 o         1 MOL     -0.453953
     80 C27         3.7190    4.9600    0.2560 c3        1 MOL     -0.087117
     81 C28         4.9880    5.8120    0.0470 c3        1 MOL     -0.237519
     82 C29         4.7380    6.8380   -1.0970 c         1 MOL      0.668191
     83 N8          5.7910    7.3060   -1.6940 n         1 MOL     -0.792728
     84 O15         3.6100    7.2050   -1.4610 o         1 MOL     -0.576402
     85 H33         4.8970    2.2580    0.8280 hn        1 MOL      0.148880
     86 H34         3.8380    4.5400    2.3360 h1        1 MOL      0.049499
     87 H35         2.8200    5.5560    0.4140 hc        1 MOL      0.073206
     88 H36         3.4450    4.4630   -0.6750 hc        1 MOL      0.073206
     89 H37         5.7160    5.0690   -0.2860 hc        1 MOL      0.100504
     90 H38         5.2490    6.3280    0.9690 hc        1 MOL      0.100504
     91 H39         6.6600    6.7990   -1.6220 hn        1 MOL      0.357572
     92 H40         5.5360    7.8690   -2.4880 hn        1 MOL      0.357572
     93 N9          1.3940    3.8610    2.0110 n         1 MOL     -0.325529
     94 C30         0.0820    3.1650    2.2940 c3        1 MOL     -0.090711
     95 C31        -0.9710    3.5480    1.2330 c         1 MOL      0.488925
     96 O16        -1.3560    4.6810    1.0940 o         1 MOL     -0.564938
     97 C32        -0.3780    3.5070    3.7450 c3        1 MOL      0.389867
     98 C33        -1.6790    2.6660    4.1050 c3        1 MOL     -0.297677
     99 C34         0.7020    3.1760    4.7820 c3        1 MOL     -0.297677
    100 H41         1.4790    4.8580    2.1880 hn        1 MOL      0.250885
    101 H42         0.1750    2.0790    2.2400 h1        1 MOL      0.117634
    102 H43        -0.6210    4.5650    3.8450 hc        1 MOL     -0.070334
    103 H44        -2.0470    3.1540    5.0050 hc        1 MOL      0.049094
    104 H45        -2.4250    2.7310    3.3050 hc        1 MOL      0.049094
    105 H46        -1.3900    1.6370    4.3040 hc        1 MOL      0.049094
    106 H47         1.6060    3.7520    4.5840 hc        1 MOL      0.049094
    107 H48         0.2770    3.4420    5.7570 hc        1 MOL      0.049094
    108 H49         1.0290    2.1450    4.7140 hc        1 MOL      0.049094
    109 N10        -1.4530    2.4980    0.5250 n         1 MOL     -0.286002
    110 C35        -2.6150    2.5320   -0.3870 c3        1 MOL      0.182713
    111 C36        -3.9320    2.3490    0.3970 c         1 MOL      0.091913
    112 O17        -3.9280    1.8300    1.5050 o         1 MOL     -0.208845
    113 C37        -2.3830    1.5230   -1.4860 c3        1 MOL     -0.118541
    114 C38        -3.5550    1.4500   -2.4160 c         1 MOL      0.572558
    115 N11        -3.8830    2.4920   -3.1460 n         1 MOL     -0.687889
    116 O18        -4.3650    0.5330   -2.4200 o         1 MOL     -0.532166
    117 H50        -1.0310    1.5950    0.6990 hn        1 MOL      0.150857
    118 H51        -2.6380    3.4790   -0.9290 h1        1 MOL      0.025704
    119 H52        -2.3070    0.5220   -1.0710 hc        1 MOL      0.078146
    120 H53        -1.4280    1.7130   -1.9840 hc        1 MOL      0.078146
    121 H54        -3.2820    3.3000   -3.2440 hn        1 MOL      0.330214
    122 H55        -4.7900    2.4270   -3.5840 hn        1 MOL      0.330214
    123 N12        -5.1500    2.6560   -0.0710 n         1 MOL     -0.100152
    124 C39        -6.4600    2.4880    0.6200 c3        1 MOL      0.129195
    125 C40        -6.7920    0.9530    0.8120 c         1 MOL      0.429048
    126 O19        -7.5010    0.7380    1.8200 o         1 MOL     -0.595700
    127 C41        -7.5540    3.2850   -0.1870 c3        1 MOL     -0.349026
    128 C42        -7.4490    3.1580   -1.7130 ca        1 MOL      0.087723
    129 C43        -6.9030    4.2340   -2.3940 ca        1 MOL     -0.120857
    130 C44        -7.8190    1.9820   -2.3910 ca        1 MOL     -0.120857
    131 C45        -6.7420    4.1690   -3.7950 ca        1 MOL     -0.327846
    132 C46        -7.5690    1.8860   -3.7990 ca        1 MOL     -0.327846
    133 C47        -7.0620    3.0100   -4.5130 ca        1 MOL      0.435027
    134 O20        -6.9140    2.8870   -5.8340 oh        1 MOL     -0.569695
    135 H56        -5.2290    3.1300   -0.9570 hn        1 MOL      0.084313
    136 H57        -6.3500    2.9110    1.6190 h1        1 MOL      0.058651
    137 H58        -7.4100    4.2970    0.1700 hc        1 MOL      0.113873
    138 H59        -8.5450    2.9630    0.1320 hc        1 MOL      0.113873
    139 H60        -6.5350    5.0920   -1.8590 ha        1 MOL      0.123479
    140 H61        -8.2160    1.1480   -1.8360 ha        1 MOL      0.123479
    141 H62        -6.2850    5.0480   -4.2210 ha        1 MOL      0.139723
    142 H63        -7.8110    0.9320   -4.2280 ha        1 MOL      0.139723
    143 H64        -7.3340    2.0550   -6.0400 ho        1 MOL      0.423193
    144 N13        -6.3340   -0.0480    0.0590 n         1 MOL      0.071395
    145 C48        -6.4010   -1.5350    0.3720 c3        1 MOL     -0.328528
    146 C49        -5.4280   -1.9860    1.4790 c         1 MOL      0.494450
    147 O21        -5.4640   -3.1660    1.8320 o         1 MOL     -0.549822
    148 C50        -6.1960   -2.4580   -0.8920 c3        1 MOL      0.092201
    149 C51        -7.0390   -2.1180   -2.1690 c3        1 MOL     -0.119867
    150 C52        -8.5450   -2.1300   -1.9450 c         1 MOL      0.612141
    151 O22        -9.0610   -2.9030   -1.1140 o         1 MOL     -0.690989
    152 O23        -9.2450   -1.2490   -2.5040 o         1 MOL     -0.690989
    153 H65        -5.7250    0.1350   -0.7350 hn        1 MOL      0.199712
    154 H66        -7.3830   -1.7020    0.8230 h1        1 MOL      0.187766
    155 H67        -6.3930   -3.4980   -0.6440 hc        1 MOL      0.004719
    156 H68        -5.1380   -2.4490   -1.1770 hc        1 MOL      0.004719
    157 H69        -6.7750   -2.8460   -2.9380 hc        1 MOL      0.000235
    158 H70        -6.7490   -1.1440   -2.5380 hc        1 MOL      0.000235
    159 N14        -4.6780   -1.0460    2.0000 n         1 MOL     -0.041362
    160 C53        -3.6480   -1.3100    2.9500 c3        1 MOL     -0.014077
    161 C54        -3.9720   -0.5310    4.2490 c         1 MOL      0.339761
    162 O24        -3.9590   -0.9810    5.4010 o         1 MOL     -0.549703
    163 C55        -2.2840   -0.7510    2.3880 c3        1 MOL      0.088593
    164 C56        -1.8670   -1.5180    1.0960 c3        1 MOL      0.017061
    165 C57        -0.4690   -1.0300    0.6080 c         1 MOL      0.694137
    166 O25         0.3150   -1.8310    0.0310 o         1 MOL     -0.672339
    167 O26        -0.0310    0.0930    0.7600 o         1 MOL     -0.672339
    168 H71        -4.8600   -0.1010    1.6890 hn        1 MOL     -0.153187
    169 H72        -3.5720   -2.3650    3.2270 h1        1 MOL      0.074085
    170 H73        -1.4770   -1.0330    3.0670 hc        1 MOL     -0.007239
    171 H74        -2.2540    0.3110    2.1570 hc        1 MOL     -0.007239
    172 H75        -2.5830   -1.4030    0.2900 hc        1 MOL     -0.019640
    173 H76        -1.8350   -2.5560    1.4210 hc        1 MOL     -0.019640
    174 N15        -4.4000    0.7320    4.1050 n         1 MOL      0.065438
    175 C58        -4.9410    1.5780    5.1270 c3        1 MOL     -0.218368
    176 H77        -5.9700    1.2850    5.3330 h1        1 MOL      0.066963
    177 H78        -4.3470    1.4790    6.0350 h1        1 MOL      0.066963
    178 H79        -4.9200    2.6150    4.7900 h1        1 MOL      0.066963
    179 H80        -4.4860    1.1720    3.1950 hn        1 MOL      0.080845
    180 Ca1         2.4290   -0.2270    0.1310 Ca        1 MOL      1.746492
    181 O27         1.9060   -0.5870    2.7630 oh        1 MOL     -0.940758
    182 H81         2.5100   -0.2880    3.4530 ho        1 MOL      0.437560
    183 H82         1.2410   -1.0970    3.2270 ho        1 MOL      0.437560
    184 O28         4.8360   -0.1090    1.6200 oh        1 MOL     -0.940758
    185 H83         5.7160   -0.4930    1.6300 ho        1 MOL      0.437560
    186 H84         4.6870    0.1960    2.5160 ho        1 MOL      0.437560
    187 O29         1.3180    1.3820   -1.9090 oh        1 MOL     -0.940758
    188 H85         2.0640    1.8870   -2.2440 ho        1 MOL      0.437560
    189 H86         1.1680    0.7190   -2.5930 ho        1 MOL      0.437560
@<TRIPOS>BOND
     1    1    2 1   
     2    1    4 1   
     3    1    5 1   
     4    1    6 1   
     5    2    3 2   
     6    2    7 1   
     7    7    8 1   
     8    7   15 1   
     9    8    9 1   
    10    8   11 1   
    11    8   16 1   
    12    9   10 2   
    13    9   19 1   
    14   11   12 1   
    15   11   17 1   
    16   11   18 1   
    17   12   13 1   
    18   12   14 1   
    19   19   20 1   
    20   19   27 1   
    21   20   21 1   
    22   20   23 1   
    23   20   28 1   
    24   21   22 2   
    25   21   38 1   
    26   23   24 1   
    27   23   25 1   
    28   23   29 1   
    29   24   26 1   
    30   24   30 1   
    31   24   31 1   
    32   25   32 1   
    33   25   33 1   
    34   25   34 1   
    35   26   35 1   
    36   26   36 1   
    37   26   37 1   
    38   38   39 1   
    39   38   46 1   
    40   39   40 1   
    41   39   42 1   
    42   39   47 1   
    43   40   41 2   
    44   40   50 1   
    45   42   43 1   
    46   42   48 1   
    47   42   49 1   
    48   43   44 1   
    49   43   45 1   
    50   50   51 1   
    51   50   54 1   
    52   51   52 1   
    53   51   55 1   
    54   51   56 1   
    55   52   53 2   
    56   52   57 1   
    57   57   58 1   
    58   57   65 1   
    59   58   59 1   
    60   58   61 1   
    61   58   66 1   
    62   59   60 2   
    63   59   69 1   
    64   61   62 1   
    65   61   67 1   
    66   61   68 1   
    67   62   63 1   
    68   62   64 1   
    69   69   70 1   
    70   69   73 1   
    71   70   71 1   
    72   70   74 1   
    73   70   75 1   
    74   71   72 2   
    75   71   76 1   
    76   76   77 1   
    77   76   85 1   
    78   77   78 1   
    79   77   80 1   
    80   77   86 1   
    81   78   79 2   
    82   78   93 1   
    83   80   81 1   
    84   80   87 1   
    85   80   88 1   
    86   81   82 1   
    87   81   89 1   
    88   81   90 1   
    89   82   83 1   
    90   82   84 2   
    91   83   91 1   
    92   83   92 1   
    93   93   94 1   
    94   93  100 1   
    95   94   95 1   
    96   94   97 1   
    97   94  101 1   
    98   95   96 2   
    99   95  109 1   
   100   97   98 1   
   101   97   99 1   
   102   97  102 1   
   103   98  103 1   
   104   98  104 1   
   105   98  105 1   
   106   99  106 1   
   107   99  107 1   
   108   99  108 1   
   109  109  110 1   
   110  109  117 1   
   111  110  111 1   
   112  110  113 1   
   113  110  118 1   
   114  111  112 2   
   115  111  123 1   
   116  113  114 1   
   117  113  119 1   
   118  113  120 1   
   119  114  115 1   
   120  114  116 2   
   121  115  121 1   
   122  115  122 1   
   123  123  124 1   
   124  123  135 1   
   125  124  125 1   
   126  124  127 1   
   127  124  136 1   
   128  125  126 2   
   129  125  144 1   
   130  127  128 1   
   131  127  137 1   
   132  127  138 1   
   133  128  129 ar  
   134  128  130 ar  
   135  129  131 ar  
   136  129  139 1   
   137  130  132 ar  
   138  130  140 1   
   139  131  133 ar  
   140  131  141 1   
   141  132  133 ar  
   142  132  142 1   
   143  133  134 1   
   144  134  143 1   
   145  144  145 1   
   146  144  153 1   
   147  145  146 1   
   148  145  148 1   
   149  145  154 1   
   150  146  147 2   
   151  146  159 1   
   152  148  149 1   
   153  148  155 1   
   154  148  156 1   
   155  149  150 1   
   156  149  157 1   
   157  149  158 1   
   158  150  151 1   
   159  150  152 1   
   160  159  160 1   
   161  159  168 1   
   162  160  161 1   
   163  160  163 1   
   164  160  169 1   
   165  161  162 2   
   166  161  174 1   
   167  163  164 1   
   168  163  170 1   
   169  163  171 1   
   170  164  165 1   
   171  164  172 1   
   172  164  173 1   
   173  165  166 1   
   174  165  167 1   
   175  174  175 1   
   176  174  179 1   
   177  175  176 1   
   178  175  177 1   
   179  175  178 1   
   180  181  182 1   
   181  181  183 1   
   182  184  185 1   
   183  184  186 1   
   184  187  188 1   
   185  187  189 1   
@<TRIPOS>SUBSTRUCTURE
     1 MOL         1 TEMP              0 ****  ****    0 ROOT
