@<TRIPOS>MOLECULE
MOL
  176   174     1     0     0
SMALL
resp


@<TRIPOS>ATOM
      1 C1          0.7130    4.5010    6.0500 c3        1 MOL     -0.315349
      2 C2          0.4400    3.8340    4.7360 c         1 MOL      0.675010
      3 O1          1.4270    3.4860    4.0070 o         1 MOL     -0.593728
      4 H1         -0.2110    4.5560    6.6270 hc        1 MOL      0.087968
      5 H2          1.4530    3.9230    6.6040 hc        1 MOL      0.087968
      6 H3          1.0930    5.5070    5.8760 hc        1 MOL      0.087968
      7 N1         -0.7980    3.6570    4.2250 n         1 MOL     -0.557779
      8 C3         -1.0930    3.0700    2.8870 c3        1 MOL     -0.031520
      9 C4         -0.8650    4.1120    1.7840 c         1 MOL      0.752837
     10 O2         -1.4950    5.1230    1.8420 o         1 MOL     -0.598496
     11 C5         -2.4230    2.3520    2.7220 c3        1 MOL     -0.077164
     12 C6         -2.5060    1.3600    1.5130 c         1 MOL      0.871439
     13 O3         -2.4200    1.9890    0.4490 o         1 MOL     -0.790789
     14 O4         -2.6720    0.1450    1.6610 o         1 MOL     -0.790789
     15 H4         -1.5410    3.9500    4.8440 hn        1 MOL      0.320615
     16 H5         -0.3690    2.2920    2.6690 h1        1 MOL      0.096601
     17 H6         -3.2920    3.0110    2.6370 hc        1 MOL      0.015379
     18 H7         -2.6860    1.8030    3.6210 hc        1 MOL      0.015379
     19 N2         -0.0060    3.8680    0.8170 n         1 MOL     -0.485771
     20 C7          0.2940    4.8040   -0.3190 c3        1 MOL     -0.059717
     21 C8         -0.8590    4.9440   -1.2930 c         1 MOL      0.489388
     22 O5         -0.8320    5.7420   -2.2300 o         1 MOL     -0.570177
     23 C9          1.5270    4.1100   -1.0740 c3        1 MOL     -0.017805
     24 C10         2.3310    5.2050   -1.8390 c3        1 MOL     -0.145978
     25 C11         3.7460    4.9050   -2.4120 c3        1 MOL      0.124696
     26 C12         3.7330    3.9430   -3.6260 c3        1 MOL      0.146205
     27 N3          4.8660    4.2010   -4.5730 n4        1 MOL     -0.481220
     28 H8          0.3380    2.9200    0.7060 hn        1 MOL      0.233693
     29 H9          0.4840    5.8250    0.0270 h1        1 MOL      0.139363
     30 H10         1.1760    3.2620   -1.6660 hc        1 MOL      0.090274
     31 H11         2.2200    3.7020   -0.3440 hc        1 MOL      0.090274
     32 H12         2.5650    5.9950   -1.1240 hc        1 MOL      0.051830
     33 H13         1.7810    5.6880   -2.6480 hc        1 MOL      0.051830
     34 H14         4.5040    4.6480   -1.6810 hc        1 MOL     -0.001137
     35 H15         4.0640    5.8510   -2.8390 hc        1 MOL     -0.001137
     36 H16         2.7930    4.1240   -4.1360 hx        1 MOL      0.035411
     37 H17         3.8200    2.8880   -3.3550 hx        1 MOL      0.035411
     38 H18         4.9120    5.1860   -4.8160 hn        1 MOL      0.349444
     39 H19         5.7180    3.8200   -4.2090 hn        1 MOL      0.349444
     40 H20         4.6810    3.6980   -5.4270 hn        1 MOL      0.349444
     41 N4         -2.0190    4.2540   -1.1580 n         1 MOL     -0.277786
     42 C13        -3.2040    4.4240   -2.0620 c3        1 MOL      0.013664
     43 C14        -4.5460    4.2680   -1.3150 c         1 MOL      0.347317
     44 O6         -5.6330    4.7170   -1.7510 o         1 MOL     -0.538478
     45 C15        -3.2980    3.3870   -3.2220 c3        1 MOL     -0.181150
     46 C16        -2.9070    1.9160   -2.8800 c         1 MOL      0.731239
     47 O7         -1.8820    1.3620   -3.2200 o         1 MOL     -0.729628
     48 O8         -3.7210    1.3450   -2.0940 o         1 MOL     -0.729628
     49 H21        -2.0300    3.4890   -0.5100 hn        1 MOL      0.317863
     50 H22        -3.1760    5.3970   -2.5420 h1        1 MOL      0.134924
     51 H23        -2.6700    3.6770   -4.0680 hc        1 MOL      0.051625
     52 H24        -4.2530    3.4980   -3.7430 hc        1 MOL      0.051625
     53 N5         -4.5200    3.7050   -0.0890 n         1 MOL     -0.013059
     54 C17        -5.6030    3.4190    0.8960 c3        1 MOL     -0.175177
     55 C18        -6.3970    2.1610    0.7160 c         1 MOL      0.477997
     56 O9         -7.3750    1.9160    1.4880 o         1 MOL     -0.551308
     57 H25        -3.6370    3.2600    0.1420 hn        1 MOL     -0.106473
     58 H26        -6.2310    4.3160    0.9260 h1        1 MOL      0.119224
     59 H27        -5.1540    3.2550    1.8740 h1        1 MOL      0.119224
     60 N6         -6.1580    1.3380   -0.3520 n         1 MOL     -0.189003
     61 C19        -6.8910    0.1820   -0.7110 c3        1 MOL     -0.033106
     62 C20        -7.1310   -0.8570    0.3990 c         1 MOL      0.582829
     63 O10        -8.1470   -1.5660    0.3730 o         1 MOL     -0.575525
     64 C21        -6.3240   -0.3650   -2.0780 c3        1 MOL     -0.282578
     65 C22        -5.2790   -1.4370   -1.8190 c         1 MOL      0.705844
     66 N7         -5.3700   -2.6190   -2.3030 n         1 MOL     -0.652425
     67 O11        -4.3660   -1.2460   -0.9890 o         1 MOL     -0.730019
     68 H28        -5.3690    1.5140   -0.9570 hn        1 MOL      0.223392
     69 H29        -7.9020    0.5600   -0.8720 h1        1 MOL      0.082790
     70 H30        -5.9270    0.3890   -2.7630 hc        1 MOL      0.108766
     71 H31        -7.1610   -0.8810   -2.5570 hc        1 MOL      0.108766
     72 H32        -5.9430   -2.8190   -3.1070 hn        1 MOL      0.295684
     73 H33        -4.6850   -3.3380   -2.1000 hn        1 MOL      0.295684
     74 N8         -6.1910   -0.9690    1.3420 n         1 MOL     -0.304963
     75 C23        -6.2030   -1.9380    2.4500 c3        1 MOL     -0.090686
     76 C24        -5.1240   -3.0930    2.4420 c         1 MOL      0.419588
     77 O12        -5.2670   -4.0460    3.2080 o         1 MOL     -0.519181
     78 H34        -5.3150   -0.5200    1.0820 hn        1 MOL      0.222443
     79 H35        -7.1460   -2.4690    2.5180 h1        1 MOL      0.106327
     80 H36        -6.2290   -1.4630    3.4290 h1        1 MOL      0.106327
     81 N9         -4.0350   -2.9060    1.6430 n         1 MOL     -0.186472
     82 C25        -2.8740   -3.7760    1.7240 c3        1 MOL     -0.112686
     83 C26        -1.5710   -3.1640    1.1510 c         1 MOL      0.723855
     84 O13        -1.5490   -2.4820    0.1210 o         1 MOL     -0.560959
     85 C27        -3.2010   -5.1220    1.1190 c3        1 MOL     -0.103398
     86 C28        -3.2130   -5.2010   -0.3920 ca        1 MOL      0.008234
     87 C29        -1.9740   -5.1240   -1.1310 ca        1 MOL     -0.109291
     88 C30        -4.4370   -5.3670   -1.0760 ca        1 MOL     -0.109291
     89 C31        -2.0200   -5.2280   -2.5180 ca        1 MOL     -0.248920
     90 C32        -4.5480   -5.4060   -2.4620 ca        1 MOL     -0.248920
     91 C33        -3.3150   -5.2890   -3.1930 ca        1 MOL      0.298480
     92 O14        -3.3400   -5.3740   -4.5440 oh        1 MOL     -0.534466
     93 H37        -4.0520   -2.0830    1.0550 hn        1 MOL      0.200962
     94 H38        -2.6970   -3.9230    2.7890 h1        1 MOL      0.102584
     95 H39        -4.1360   -5.4740    1.5450 hc        1 MOL      0.066663
     96 H40        -2.4430   -5.8310    1.4670 hc        1 MOL      0.066663
     97 H41        -1.0380   -4.9120   -0.6430 ha        1 MOL      0.135314
     98 H42        -5.3540   -5.5370   -0.5340 ha        1 MOL      0.135314
     99 H43        -1.1480   -5.1620   -3.1640 ha        1 MOL      0.147824
    100 H44        -5.5180   -5.4480   -2.9220 ha        1 MOL      0.147824
    101 H45        -4.2010   -5.3880   -4.9600 ho        1 MOL      0.401295
    102 N10        -0.4930   -3.4130    1.8400 n         1 MOL     -0.431962
    103 C34         0.8310   -2.8450    1.5660 c3        1 MOL     -0.192190
    104 C35         2.0130   -3.7260    1.0790 c         1 MOL      0.739666
    105 O15         2.0770   -4.8660    1.4010 o         1 MOL     -0.549256
    106 C36         1.2760   -1.9230    2.7450 c3        1 MOL      0.265298
    107 C37         1.5450   -2.7900    4.0110 c3        1 MOL     -0.185410
    108 C38         0.2510   -0.7850    3.0480 c3        1 MOL     -0.222164
    109 C39         2.2010   -2.0690    5.1670 c3        1 MOL     -0.287911
    110 H46        -0.5660   -3.9200    2.7090 hn        1 MOL      0.246418
    111 H47         0.7360   -2.0770    0.7950 h1        1 MOL      0.064027
    112 H48         2.1460   -1.4010    2.3440 hc        1 MOL     -0.063693
    113 H49         2.1290   -3.6730    3.7730 hc        1 MOL      0.086563
    114 H50         0.5790   -3.1600    4.3590 hc        1 MOL      0.086563
    115 H51         0.7430   -0.1080    3.7340 hc        1 MOL      0.060035
    116 H52         0.0090   -0.2040    2.1560 hc        1 MOL      0.060035
    117 H53        -0.6320   -1.2640    3.4740 hc        1 MOL      0.060035
    118 H54         2.2460   -2.7480    6.0140 hc        1 MOL      0.086021
    119 H55         3.1440   -1.6790    4.8000 hc        1 MOL      0.086021
    120 H56         1.5640   -1.3560    5.6880 hc        1 MOL      0.086021
    121 N11         2.9860   -3.1440    0.3150 n         1 MOL     -0.687629
    122 C40         4.2360   -3.7510   -0.1930 c3        1 MOL      0.334689
    123 C41         5.6030   -3.1020    0.2950 c         1 MOL      0.378239
    124 O16         5.5000   -2.0410    0.9540 o         1 MOL     -0.436138
    125 C42         4.3060   -3.7130   -1.7760 c3        1 MOL     -0.173842
    126 O17         4.6000   -2.4430   -2.2430 oh        1 MOL     -0.443602
    127 H57         2.7570   -2.1700    0.1690 hn        1 MOL      0.344948
    128 H58         4.2460   -4.7930    0.1150 h1        1 MOL      0.021133
    129 H59         3.4040   -3.9120   -2.3550 h1        1 MOL      0.092301
    130 H60         5.0210   -4.4780   -2.0690 h1        1 MOL      0.092301
    131 H61         4.1400   -2.5030   -3.0880 ho        1 MOL      0.391993
    132 N12         6.7320   -3.6270   -0.1060 n         1 MOL     -0.406539
    133 C43         8.0100   -2.9490    0.2980 c3        1 MOL      0.129971
    134 C44         8.2120   -1.5460   -0.2620 c         1 MOL      0.460716
    135 O18         8.8070   -0.7560    0.3850 o         1 MOL     -0.524220
    136 C45         9.1660   -3.9470    0.0380 c3        1 MOL     -0.501264
    137 H62         6.7730   -4.5150   -0.5890 hn        1 MOL      0.302433
    138 H63         8.0040   -2.8230    1.3780 h1        1 MOL      0.110124
    139 H64         9.0160   -4.7280    0.7920 hc        1 MOL      0.150645
    140 H65         9.1050   -4.3160   -0.9820 hc        1 MOL      0.150645
    141 H66        10.1170   -3.4380    0.1980 hc        1 MOL      0.150645
    142 N13         7.6110   -1.2090   -1.3510 n         1 MOL     -0.193684
    143 C46         7.7300    0.0650   -1.9940 c3        1 MOL     -0.029948
    144 C47         6.8460    1.0550   -1.1940 c         1 MOL      0.476526
    145 O19         7.3590    2.1470   -0.9320 o         1 MOL     -0.536026
    146 C48         7.2370   -0.0190   -3.3990 c3        1 MOL     -0.122130
    147 H67         6.9860   -1.9180   -1.7240 hn        1 MOL      0.131123
    148 H68         8.7690    0.4180   -1.9650 h1        1 MOL      0.118694
    149 H69         6.1620   -0.1740   -3.5120 hc        1 MOL      0.030896
    150 H70         7.4030    0.9470   -3.8940 hc        1 MOL      0.030896
    151 H71         7.7830   -0.7460   -3.9840 hc        1 MOL      0.030896
    152 N14         5.6160    0.7420   -0.8890 n         1 MOL     -0.279174
    153 C49         4.7380    1.4760    0.0890 c3        1 MOL     -0.217526
    154 C50         5.4320    1.6120    1.4490 c         1 MOL      0.586176
    155 O20         5.5080    2.7450    1.9240 o         1 MOL     -0.532691
    156 C51         3.3590    0.8530    0.2020 c3        1 MOL     -0.149230
    157 C52         2.5420    0.7840   -1.0730 c3        1 MOL      0.307968
    158 C53         1.0610    0.4000   -0.8820 c         1 MOL      0.662804
    159 O21         0.2790    1.1620   -0.3130 o         1 MOL     -0.752007
    160 O22         0.5780   -0.6810   -1.3610 o         1 MOL     -0.752007
    161 H72         5.2860   -0.1950   -1.0910 hn        1 MOL      0.258902
    162 H73         4.6120    2.4710   -0.3410 h1        1 MOL      0.108806
    163 H74         2.9260    1.5750    0.8940 hc        1 MOL      0.078668
    164 H75         3.5170   -0.1840    0.5020 hc        1 MOL      0.078668
    165 H76         2.9680    0.0080   -1.7200 hc        1 MOL     -0.145899
    166 H77         2.5920    1.7490   -1.5690 hc        1 MOL     -0.145899
    167 N15         5.9580    0.5440    2.0850 n         1 MOL     -0.212473
    168 C54         6.6970    0.6870    3.3230 c3        1 MOL     -0.202600
    169 H78         7.2290    1.6390    3.3190 h1        1 MOL      0.094183
    170 H79         6.0060    0.6610    4.1640 h1        1 MOL      0.094183
    171 H80         7.4140   -0.1290    3.4140 h1        1 MOL      0.094183
    172 H81         5.9740   -0.3760    1.6610 hn        1 MOL      0.196388
    173 Ca1        -1.9370   -0.1650   -1.0080 Ca        1 MOL      1.785617
    174 O23        -1.9950   -1.7030   -3.0630 oh        1 MOL     -0.853879
    175 H82        -1.3520   -2.3620   -3.3220 ho        1 MOL      0.417518
    176 H83        -2.6570   -1.7330   -3.7450 ho        1 MOL      0.417518
@<TRIPOS>BOND
     1    1    2 1   
     2    1    4 1   
     3    1    5 1   
     4    1    6 1   
     5    2    3 2   
     6    2    7 1   
     7    7    8 1   
     8    7   15 1   
     9    8    9 1   
    10    8   11 1   
    11    8   16 1   
    12    9   10 2   
    13    9   19 1   
    14   11   12 1   
    15   11   17 1   
    16   11   18 1   
    17   12   13 1   
    18   12   14 1   
    19   19   20 1   
    20   19   28 1   
    21   20   21 1   
    22   20   23 1   
    23   20   29 1   
    24   21   22 2   
    25   21   41 1   
    26   23   24 1   
    27   23   30 1   
    28   23   31 1   
    29   24   25 1   
    30   24   32 1   
    31   24   33 1   
    32   25   26 1   
    33   25   34 1   
    34   25   35 1   
    35   26   27 1   
    36   26   36 1   
    37   26   37 1   
    38   27   38 1   
    39   27   39 1   
    40   27   40 1   
    41   41   42 1   
    42   41   49 1   
    43   42   43 1   
    44   42   45 1   
    45   42   50 1   
    46   43   44 2   
    47   43   53 1   
    48   45   46 1   
    49   45   51 1   
    50   45   52 1   
    51   46   47 1   
    52   46   48 1   
    53   53   54 1   
    54   53   57 1   
    55   54   55 1   
    56   54   58 1   
    57   54   59 1   
    58   55   56 2   
    59   55   60 1   
    60   60   61 1   
    61   60   68 1   
    62   61   62 1   
    63   61   64 1   
    64   61   69 1   
    65   62   63 2   
    66   62   74 1   
    67   64   65 1   
    68   64   70 1   
    69   64   71 1   
    70   65   66 1   
    71   65   67 2   
    72   66   72 1   
    73   66   73 1   
    74   74   75 1   
    75   74   78 1   
    76   75   76 1   
    77   75   79 1   
    78   75   80 1   
    79   76   77 2   
    80   76   81 1   
    81   81   82 1   
    82   81   93 1   
    83   82   83 1   
    84   82   85 1   
    85   82   94 1   
    86   83   84 2   
    87   83  102 1   
    88   85   86 1   
    89   85   95 1   
    90   85   96 1   
    91   86   87 ar  
    92   86   88 ar  
    93   87   89 ar  
    94   87   97 1   
    95   88   90 ar  
    96   88   98 1   
    97   89   91 ar  
    98   89   99 1   
    99   90   91 ar  
   100   90  100 1   
   101   91   92 1   
   102   92  101 1   
   103  102  103 1   
   104  102  110 1   
   105  103  104 1   
   106  103  106 1   
   107  103  111 1   
   108  104  105 2   
   109  104  121 1   
   110  106  107 1   
   111  106  108 1   
   112  106  112 1   
   113  107  109 1   
   114  107  113 1   
   115  107  114 1   
   116  108  115 1   
   117  108  116 1   
   118  108  117 1   
   119  109  118 1   
   120  109  119 1   
   121  109  120 1   
   122  121  122 1   
   123  121  127 1   
   124  122  123 1   
   125  122  125 1   
   126  122  128 1   
   127  123  124 2   
   128  123  132 1   
   129  125  126 1   
   130  125  129 1   
   131  125  130 1   
   132  126  131 1   
   133  132  133 1   
   134  132  137 1   
   135  133  134 1   
   136  133  136 1   
   137  133  138 1   
   138  134  135 2   
   139  134  142 1   
   140  136  139 1   
   141  136  140 1   
   142  136  141 1   
   143  142  143 1   
   144  142  147 1   
   145  143  144 1   
   146  143  146 1   
   147  143  148 1   
   148  144  145 2   
   149  144  152 1   
   150  146  149 1   
   151  146  150 1   
   152  146  151 1   
   153  152  153 1   
   154  152  161 1   
   155  153  154 1   
   156  153  156 1   
   157  153  162 1   
   158  154  155 2   
   159  154  167 1   
   160  156  157 1   
   161  156  163 1   
   162  156  164 1   
   163  157  158 1   
   164  157  165 1   
   165  157  166 1   
   166  158  159 1   
   167  158  160 1   
   168  167  168 1   
   169  167  172 1   
   170  168  169 1   
   171  168  170 1   
   172  168  171 1   
   173  174  175 1   
   174  174  176 1   
@<TRIPOS>SUBSTRUCTURE
     1 MOL         1 TEMP              0 ****  ****    0 ROOT
