@<TRIPOS>MOLECULE
MOL
  186   183     1     0     0
SMALL
resp


@<TRIPOS>ATOM
      1 C1          0.8430   -2.2500    6.2260 c3        1 MOL     -0.330301
      2 C2          1.1170   -2.1760    4.6870 c         1 MOL      0.758028
      3 O1          0.1960   -2.5860    3.9800 o         1 MOL     -0.585730
      4 H1          1.1270   -3.2340    6.5980 hc        1 MOL      0.071139
      5 H2          1.4290   -1.4860    6.7380 hc        1 MOL      0.071139
      6 H3         -0.2170   -2.0830    6.4160 hc        1 MOL      0.071139
      7 N1          2.2570   -1.6830    4.2800 n         1 MOL     -0.704107
      8 C3          2.7130   -1.7890    2.8820 c3        1 MOL      0.275107
      9 C4          2.7870   -3.3420    2.5810 c         1 MOL      0.514943
     10 O2          3.4750   -4.1160    3.2200 o         1 MOL     -0.585156
     11 C5          4.1800   -1.2510    2.8340 c3        1 MOL     -0.216333
     12 C6          4.6940   -0.8680    1.4220 c         1 MOL      0.902176
     13 O3          5.8780   -0.4020    1.5040 o         1 MOL     -0.713149
     14 O4          3.9630   -0.9990    0.4250 o         1 MOL     -0.713149
     15 H4          2.9590   -1.2560    4.8760 hn        1 MOL      0.346894
     16 H5          1.9640   -1.2480    2.2950 h1        1 MOL     -0.041760
     17 H6          4.8410   -2.0520    3.1520 hc        1 MOL      0.033617
     18 H7          4.3720   -0.4030    3.4900 hc        1 MOL      0.033617
     19 N2          2.1230   -3.7140    1.5030 n         1 MOL     -0.226995
     20 C7          2.1540   -5.0900    0.8940 c3        1 MOL     -0.042372
     21 C8          2.9960   -5.1740   -0.3260 c         1 MOL      0.495734
     22 O5          3.6910   -6.2080   -0.4210 o         1 MOL     -0.599050
     23 C9          0.7040   -5.5680    0.6890 c3        1 MOL      0.079498
     24 C10        -0.2540   -5.4700    1.9500 c3        1 MOL      0.110961
     25 C11         0.7360   -7.0390    0.2720 c3        1 MOL     -0.228456
     26 C12        -1.6900   -5.9470    1.8070 c3        1 MOL     -0.171990
     27 H8          1.6110   -2.9850    1.0220 hn        1 MOL      0.133523
     28 H9          2.6560   -5.8370    1.5270 h1        1 MOL      0.084154
     29 H10         0.3060   -5.0350   -0.1610 hc        1 MOL      0.038992
     30 H11        -0.2190   -4.3860    2.0680 hc        1 MOL     -0.009315
     31 H12         0.1710   -5.9810    2.8150 hc        1 MOL     -0.009315
     32 H13         0.9250   -7.7300    1.0970 hc        1 MOL      0.043108
     33 H14        -0.1550   -7.3620   -0.2820 hc        1 MOL      0.043108
     34 H15         1.4950   -7.2290   -0.4850 hc        1 MOL      0.043108
     35 H16        -2.1860   -5.6810    2.7380 hc        1 MOL      0.030140
     36 H17        -2.2330   -5.4140    1.0350 hc        1 MOL      0.030140
     37 H18        -1.7170   -7.0320    1.6620 hc        1 MOL      0.030140
     38 N3          2.9920   -4.1920   -1.1990 n         1 MOL     -0.262965
     39 C13         3.8600   -4.1920   -2.4430 c3        1 MOL     -0.017832
     40 C14         5.2810   -3.6370   -2.2830 c         1 MOL      0.453414
     41 O6          6.1140   -3.8070   -3.1600 o         1 MOL     -0.526658
     42 C15         3.1180   -3.8250   -3.6920 c3        1 MOL     -0.090312
     43 C16         2.3770   -2.4640   -3.4830 c         1 MOL      0.775938
     44 O7          1.3370   -2.2180   -4.1670 o         1 MOL     -0.735319
     45 O8          2.9030   -1.7010   -2.6400 o         1 MOL     -0.735319
     46 H19         2.3600   -3.4250   -1.0540 hn        1 MOL      0.215563
     47 H20         4.0470   -5.2660   -2.5370 h1        1 MOL      0.053866
     48 H21         2.3980   -4.5740   -4.0540 hc        1 MOL      0.019712
     49 H22         3.8520   -3.7050   -4.4910 hc        1 MOL      0.019712
     50 N4          5.4820   -2.9010   -1.1620 n         1 MOL      0.001190
     51 C17         6.8610   -2.5830   -0.7610 c3        1 MOL     -0.324896
     52 C18         7.4990   -1.3500   -1.4190 c         1 MOL      0.761844
     53 O9          8.4190   -1.5320   -2.1980 o         1 MOL     -0.601208
     54 H23         4.7320   -2.6070   -0.5570 hn        1 MOL      0.087052
     55 H24         7.5720   -3.3720   -1.0090 h1        1 MOL      0.079993
     56 H25         6.7590   -2.5570    0.3330 h1        1 MOL      0.079993
     57 N5          7.0380   -0.1600   -1.0490 n         1 MOL     -0.414354
     58 C19         7.5240    1.1020   -1.5290 c3        1 MOL      0.045968
     59 C20         7.6230    2.3090   -0.5530 c         1 MOL      0.464991
     60 O10         8.1420    3.3970   -0.8820 o         1 MOL     -0.552230
     61 C21         6.6220    1.4750   -2.7270 c3        1 MOL     -0.214141
     62 C22         5.1610    1.3950   -2.4210 c         1 MOL      0.680974
     63 O11         4.5890    1.7910   -1.3370 o         1 MOL     -0.721310
     64 O12         4.3920    0.8200   -3.2970 o         1 MOL     -0.721310
     65 H26         6.3660   -0.2100   -0.2940 hn        1 MOL      0.122398
     66 H27         8.5320    0.9080   -1.9110 h1        1 MOL      0.049750
     67 H28         6.8630    0.7910   -3.5380 hc        1 MOL      0.074971
     68 H29         6.8750    2.4980   -2.9890 hc        1 MOL      0.074971
     69 N6          7.1780    2.1000    0.7070 n         1 MOL     -0.315614
     70 C23         7.1270    3.0390    1.7930 c3        1 MOL     -0.092783
     71 C24         5.8700    3.8910    1.9060 c         1 MOL      0.508304
     72 O13         5.8690    4.7610    2.7360 o         1 MOL     -0.613560
     73 H30         6.8120    1.1880    0.9210 hn        1 MOL      0.269163
     74 H31         8.0640    3.5660    1.9020 h1        1 MOL      0.084756
     75 H32         7.1410    2.4180    2.6860 h1        1 MOL      0.084756
     76 N7          4.8200    3.5630    1.1770 n         1 MOL     -0.221596
     77 C25         3.4380    4.0900    1.3490 c3        1 MOL      0.090606
     78 C26         2.3480    3.0120    1.4120 c         1 MOL      0.492483
     79 O14         2.5730    1.8750    0.9920 o         1 MOL     -0.614621
     80 C27         3.2400    4.9660    0.2040 c3        1 MOL      0.116137
     81 C28         3.9540    6.3050    0.3640 c3        1 MOL     -0.186407
     82 C29         3.7530    7.3160   -0.7760 c         1 MOL      0.642107
     83 N8          4.8470    7.9200   -1.2120 n         1 MOL     -0.779143
     84 O15         2.6520    7.6660   -1.1700 o         1 MOL     -0.571865
     85 H33         4.9330    2.7340    0.6190 hn        1 MOL      0.151014
     86 H34         3.3310    4.5730    2.3240 h1        1 MOL      0.031966
     87 H35         2.1820    5.1650    0.0440 hc        1 MOL     -0.019648
     88 H36         3.6110    4.5150   -0.7140 hc        1 MOL     -0.019648
     89 H37         4.9980    6.0050    0.3900 hc        1 MOL      0.048460
     90 H38         3.7030    6.7380    1.3370 hc        1 MOL      0.048460
     91 H39         5.7580    7.6880   -0.8500 hn        1 MOL      0.353185
     92 H40         4.6820    8.6420   -1.8990 hn        1 MOL      0.353185
     93 N9          1.1750    3.4310    1.7740 n         1 MOL     -0.390357
     94 C30         0.0010    2.5250    1.9880 c3        1 MOL     -0.005596
     95 C31        -1.0720    3.0850    1.0630 c         1 MOL      0.531413
     96 O16        -1.5420    4.1670    1.3210 o         1 MOL     -0.574473
     97 C32        -0.3660    2.4490    3.4870 c3        1 MOL      0.251924
     98 C33        -1.5950    1.5700    3.6700 c3        1 MOL     -0.302993
     99 C34         0.8670    1.8600    4.2800 c3        1 MOL     -0.302993
    100 H41         1.0810    4.3700    2.1450 hn        1 MOL      0.262976
    101 H42         0.2780    1.5450    1.5940 h1        1 MOL      0.155279
    102 H43        -0.6670    3.4420    3.8150 hc        1 MOL     -0.025887
    103 H44        -1.5450    0.6550    3.0820 hc        1 MOL      0.064946
    104 H45        -1.7700    1.4180    4.7390 hc        1 MOL      0.064946
    105 H46        -2.4810    2.1070    3.3170 hc        1 MOL      0.064946
    106 H47         1.0920    0.9130    3.7760 hc        1 MOL      0.064946
    107 H48         1.7750    2.4620    4.2250 hc        1 MOL      0.064946
    108 H49         0.5520    1.7910    5.3240 hc        1 MOL      0.064946
    109 N10        -1.5140    2.3340    0.0660 n         1 MOL     -0.422531
    110 C35        -2.7510    2.5710   -0.6200 c3        1 MOL      0.369075
    111 C36        -4.0020    2.1410    0.1520 c         1 MOL      0.180842
    112 O17        -3.9560    1.3240    1.1300 o         1 MOL     -0.255753
    113 C37        -2.7580    1.7000   -1.9130 c3        1 MOL     -0.645746
    114 C38        -3.6810    2.2010   -3.0020 c         1 MOL      0.720078
    115 N11        -3.4280    3.3830   -3.5370 n         1 MOL     -0.781642
    116 O18        -4.7790    1.6620   -3.2790 o         1 MOL     -0.550040
    117 H50        -1.1020    1.4170   -0.0270 hn        1 MOL      0.213213
    118 H51        -2.9140    3.6190   -0.8780 h1        1 MOL     -0.000175
    119 H52        -2.9780    0.6550   -1.6940 hc        1 MOL      0.216511
    120 H53        -1.7230    1.8240   -2.2560 hc        1 MOL      0.216511
    121 H54        -2.5210    3.7970   -3.3900 hn        1 MOL      0.367913
    122 H55        -4.0150    3.6390   -4.3240 hn        1 MOL      0.367913
    123 N12        -5.1570    2.6090   -0.3540 n         1 MOL     -0.323393
    124 C39        -6.4420    2.2220    0.1220 c3        1 MOL      0.159999
    125 C40        -6.5940    0.6870    0.1550 c         1 MOL      0.646244
    126 O19        -7.0580    0.1340    1.1650 o         1 MOL     -0.547302
    127 C41        -7.5720    2.9610   -0.6380 c3        1 MOL     -0.271923
    128 C42        -8.9560    2.5650   -0.2550 ca        1 MOL      0.197623
    129 C43        -9.6780    3.0240    0.8830 ca        1 MOL     -0.312655
    130 C44        -9.7340    1.6240   -1.0400 ca        1 MOL     -0.312655
    131 C45       -10.8600    2.4540    1.3310 ca        1 MOL     -0.049546
    132 C46       -11.0280    1.2200   -0.7570 ca        1 MOL     -0.049546
    133 C47       -11.6390    1.6100    0.4710 ca        1 MOL      0.117142
    134 O20       -12.7610    0.9220    0.9740 oh        1 MOL     -0.500624
    135 H56        -4.9940    3.1400   -1.2040 hn        1 MOL      0.214498
    136 H57        -6.3970    2.5380    1.1560 h1        1 MOL      0.020750
    137 H58        -7.3840    2.7460   -1.6970 hc        1 MOL      0.089551
    138 H59        -7.4270    4.0200   -0.4310 hc        1 MOL      0.089551
    139 H60        -9.1600    3.6430    1.6090 ha        1 MOL      0.146588
    140 H61        -9.2570    1.3860   -1.9760 ha        1 MOL      0.146588
    141 H62       -11.2740    2.6720    2.3070 ha        1 MOL      0.104541
    142 H63       -11.5410    0.5110   -1.3850 ha        1 MOL      0.104541
    143 H64       -13.0640    0.2440    0.3730 ho        1 MOL      0.387937
    144 N13        -6.1390    0.0490   -0.9430 n         1 MOL     -0.382319
    145 C48        -6.2100   -1.4390   -1.0570 c3        1 MOL     -0.084699
    146 C49        -5.4250   -2.2260   -0.0170 c         1 MOL      0.357687
    147 O21        -5.8230   -3.3280    0.2870 o         1 MOL     -0.495092
    148 C50        -5.7480   -1.8550   -2.4640 c3        1 MOL      0.169009
    149 C51        -6.8230   -1.5740   -3.5540 c3        1 MOL     -0.155634
    150 C52        -6.4100   -2.1390   -4.9210 c         1 MOL      0.721064
    151 O22        -6.4160   -1.3290   -5.8950 o         1 MOL     -0.742341
    152 O23        -6.2730   -3.3420   -5.0560 o         1 MOL     -0.742341
    153 H65        -5.6820    0.5930   -1.6620 hn        1 MOL      0.333755
    154 H66        -7.1910   -1.9220   -1.0470 h1        1 MOL      0.095829
    155 H67        -5.5910   -2.9300   -2.5220 hc        1 MOL     -0.019723
    156 H68        -4.8020   -1.3480   -2.6900 hc        1 MOL     -0.019723
    157 H69        -6.8610   -0.4790   -3.5880 hc        1 MOL     -0.018698
    158 H70        -7.8060   -1.9110   -3.2380 hc        1 MOL     -0.018698
    159 N14        -4.3260   -1.6480    0.4430 n         1 MOL     -0.205009
    160 C53        -3.4380   -2.2380    1.3620 c3        1 MOL     -0.057548
    161 C54        -4.0120   -1.9990    2.8070 c         1 MOL      0.331492
    162 O24        -3.8940   -2.8230    3.7090 o         1 MOL     -0.537437
    163 C55        -2.0090   -1.6390    1.2230 c3        1 MOL      0.120133
    164 C56        -1.4160   -2.1030   -0.1260 c3        1 MOL     -0.030618
    165 C57        -0.0970   -1.3490   -0.2530 c         1 MOL      0.870819
    166 O25         0.9160   -1.9940   -0.5100 o         1 MOL     -0.801887
    167 O26         0.0820   -0.1230   -0.2160 o         1 MOL     -0.801887
    168 H71        -4.1280   -0.7030    0.1600 hn        1 MOL      0.131789
    169 H72        -3.3500   -3.3150    1.2110 h1        1 MOL      0.123019
    170 H73        -1.4160   -1.8790    2.0990 hc        1 MOL      0.022044
    171 H74        -2.1270   -0.5640    1.2920 hc        1 MOL      0.022044
    172 H75        -1.9590   -1.7490   -1.0050 hc        1 MOL     -0.014982
    173 H76        -1.2840   -3.1830   -0.0960 hc        1 MOL     -0.014982
    174 N15        -4.7770   -0.9140    3.0070 n         1 MOL      0.091965
    175 C58        -5.4200   -0.5160    4.2760 c3        1 MOL     -0.249303
    176 H77        -5.1770   -1.2430    5.0500 h1        1 MOL      0.084216
    177 H78        -5.0570    0.4670    4.5760 h1        1 MOL      0.084216
    178 H79        -6.5010   -0.4790    4.1410 h1        1 MOL      0.084216
    179 H80        -4.8310   -0.2420    2.2560 hn        1 MOL     -0.049151
    180 Ca1         2.4290    0.3400   -1.2430 Ca        1 MOL      1.794833
    181 O27         2.3150    2.7320   -2.2860 oh        1 MOL     -0.881584
    182 H81         2.2100    2.9900   -3.2050 ho        1 MOL      0.419173
    183 H82         3.2190    2.9640   -2.0790 ho        1 MOL      0.419173
    184 O28         0.5970    0.4060   -3.2330 oh        1 MOL     -0.881584
    185 H83         0.5170   -0.5370   -3.3070 ho        1 MOL      0.419173
    186 H84         0.5780    0.7230   -4.1300 ho        1 MOL      0.419173
@<TRIPOS>BOND
     1    1    2 1   
     2    1    4 1   
     3    1    5 1   
     4    1    6 1   
     5    2    3 2   
     6    2    7 1   
     7    7    8 1   
     8    7   15 1   
     9    8    9 1   
    10    8   11 1   
    11    8   16 1   
    12    9   10 2   
    13    9   19 1   
    14   11   12 1   
    15   11   17 1   
    16   11   18 1   
    17   12   13 1   
    18   12   14 1   
    19   19   20 1   
    20   19   27 1   
    21   20   21 1   
    22   20   23 1   
    23   20   28 1   
    24   21   22 2   
    25   21   38 1   
    26   23   24 1   
    27   23   25 1   
    28   23   29 1   
    29   24   26 1   
    30   24   30 1   
    31   24   31 1   
    32   25   32 1   
    33   25   33 1   
    34   25   34 1   
    35   26   35 1   
    36   26   36 1   
    37   26   37 1   
    38   38   39 1   
    39   38   46 1   
    40   39   40 1   
    41   39   42 1   
    42   39   47 1   
    43   40   41 2   
    44   40   50 1   
    45   42   43 1   
    46   42   48 1   
    47   42   49 1   
    48   43   44 1   
    49   43   45 1   
    50   50   51 1   
    51   50   54 1   
    52   51   52 1   
    53   51   55 1   
    54   51   56 1   
    55   52   53 2   
    56   52   57 1   
    57   57   58 1   
    58   57   65 1   
    59   58   59 1   
    60   58   61 1   
    61   58   66 1   
    62   59   60 2   
    63   59   69 1   
    64   61   62 1   
    65   61   67 1   
    66   61   68 1   
    67   62   63 1   
    68   62   64 1   
    69   69   70 1   
    70   69   73 1   
    71   70   71 1   
    72   70   74 1   
    73   70   75 1   
    74   71   72 2   
    75   71   76 1   
    76   76   77 1   
    77   76   85 1   
    78   77   78 1   
    79   77   80 1   
    80   77   86 1   
    81   78   79 2   
    82   78   93 1   
    83   80   81 1   
    84   80   87 1   
    85   80   88 1   
    86   81   82 1   
    87   81   89 1   
    88   81   90 1   
    89   82   83 1   
    90   82   84 2   
    91   83   91 1   
    92   83   92 1   
    93   93   94 1   
    94   93  100 1   
    95   94   95 1   
    96   94   97 1   
    97   94  101 1   
    98   95   96 2   
    99   95  109 1   
   100   97   98 1   
   101   97   99 1   
   102   97  102 1   
   103   98  103 1   
   104   98  104 1   
   105   98  105 1   
   106   99  106 1   
   107   99  107 1   
   108   99  108 1   
   109  109  110 1   
   110  109  117 1   
   111  110  111 1   
   112  110  113 1   
   113  110  118 1   
   114  111  112 2   
   115  111  123 1   
   116  113  114 1   
   117  113  119 1   
   118  113  120 1   
   119  114  115 1   
   120  114  116 2   
   121  115  121 1   
   122  115  122 1   
   123  123  124 1   
   124  123  135 1   
   125  124  125 1   
   126  124  127 1   
   127  124  136 1   
   128  125  126 2   
   129  125  144 1   
   130  127  128 1   
   131  127  137 1   
   132  127  138 1   
   133  128  129 ar  
   134  128  130 ar  
   135  129  131 ar  
   136  129  139 1   
   137  130  132 ar  
   138  130  140 1   
   139  131  133 ar  
   140  131  141 1   
   141  132  133 ar  
   142  132  142 1   
   143  133  134 1   
   144  134  143 1   
   145  144  145 1   
   146  144  153 1   
   147  145  146 1   
   148  145  148 1   
   149  145  154 1   
   150  146  147 2   
   151  146  159 1   
   152  148  149 1   
   153  148  155 1   
   154  148  156 1   
   155  149  150 1   
   156  149  157 1   
   157  149  158 1   
   158  150  151 1   
   159  150  152 1   
   160  159  160 1   
   161  159  168 1   
   162  160  161 1   
   163  160  163 1   
   164  160  169 1   
   165  161  162 2   
   166  161  174 1   
   167  163  164 1   
   168  163  170 1   
   169  163  171 1   
   170  164  165 1   
   171  164  172 1   
   172  164  173 1   
   173  165  166 1   
   174  165  167 1   
   175  174  175 1   
   176  174  179 1   
   177  175  176 1   
   178  175  177 1   
   179  175  178 1   
   180  181  182 1   
   181  181  183 1   
   182  184  185 1   
   183  184  186 1   
@<TRIPOS>SUBSTRUCTURE
     1 MOL         1 TEMP              0 ****  ****    0 ROOT
