@<TRIPOS>MOLECULE
MOL
  189   185     1     0     0
SMALL
resp


@<TRIPOS>ATOM
      1 C1         -0.1910    2.6040    5.8670 c3        1 MOL     -0.135783
      2 C2         -0.4230    2.2530    4.4250 c         1 MOL      0.663459
      3 O1          0.4050    2.5910    3.5820 o         1 MOL     -0.610655
      4 H1          0.5810    3.3710    5.9350 hc        1 MOL      0.033774
      5 H2         -1.1170    2.9820    6.3030 hc        1 MOL      0.033774
      6 H3          0.1310    1.7160    6.4100 hc        1 MOL      0.033774
      7 N1         -1.5160    1.5000    4.1630 n         1 MOL     -0.402072
      8 C3         -2.1390    1.3760    2.8900 c3        1 MOL      0.047841
      9 C4         -2.7240    2.7770    2.4150 c         1 MOL      0.408618
     10 O2         -3.6670    3.3260    3.0020 o         1 MOL     -0.529828
     11 C5         -3.2970    0.4070    2.8830 c3        1 MOL     -0.349826
     12 C6         -3.9760    0.1810    1.5050 c         1 MOL      0.868395
     13 O3         -3.5060    0.7330    0.4780 o         1 MOL     -0.704293
     14 O4         -5.0370   -0.4940    1.4650 o         1 MOL     -0.704293
     15 H4         -2.0490    1.1070    4.9200 hn        1 MOL      0.286178
     16 H5         -1.3450    1.0720    2.2050 h1        1 MOL     -0.005422
     17 H6         -4.0050    0.8150    3.6030 hc        1 MOL      0.086292
     18 H7         -2.9730   -0.6030    3.1440 hc        1 MOL      0.086292
     19 N2         -2.1670    3.4280    1.3520 n         1 MOL     -0.015011
     20 C7         -2.5060    4.7610    0.8930 c3        1 MOL     -0.294746
     21 C8         -3.7360    4.8170   -0.1110 c         1 MOL      0.590079
     22 O5         -4.1280    5.9250   -0.5170 o         1 MOL     -0.566616
     23 C9         -1.3340    5.3250    0.2260 c3        1 MOL      0.090830
     24 C10        -0.1540    5.4520    1.1590 c3        1 MOL     -0.073706
     25 C11         1.1290    5.7930    0.4000 c3        1 MOL     -0.104157
     26 C12         1.1080    7.2520   -0.1200 c3        1 MOL      0.006989
     27 N3          2.3410    7.5100   -0.9570 n4        1 MOL     -0.398038
     28 H8         -1.3970    2.9470    0.9060 hn        1 MOL      0.108609
     29 H9         -2.8310    5.3260    1.7630 h1        1 MOL      0.120804
     30 H10        -1.5760    6.2980   -0.2070 hc        1 MOL      0.035209
     31 H11        -1.0050    4.6680   -0.5850 hc        1 MOL      0.035209
     32 H12         0.0690    4.4760    1.6020 hc        1 MOL      0.055236
     33 H13        -0.3770    6.1400    1.9800 hc        1 MOL      0.055236
     34 H14         1.3200    5.1900   -0.4800 hc        1 MOL      0.088246
     35 H15         1.9870    5.5780    1.0280 hc        1 MOL      0.088246
     36 H16         1.1890    7.8510    0.7950 hx        1 MOL      0.089696
     37 H17         0.1880    7.4330   -0.6830 hx        1 MOL      0.089696
     38 H18         3.1500    7.3980   -0.3720 hn        1 MOL      0.332390
     39 H19         2.4270    6.9500   -1.8000 hn        1 MOL      0.332390
     40 H20         2.3070    8.4400   -1.3600 hn        1 MOL      0.332390
     41 N4         -4.2470    3.6320   -0.4090 n         1 MOL     -0.327950
     42 C13        -5.2510    3.5020   -1.5260 c3        1 MOL     -0.012748
     43 C14        -6.5740    2.7680   -1.0680 c         1 MOL      0.410681
     44 O6         -7.5250    2.7140   -1.8000 o         1 MOL     -0.483755
     45 C15        -4.6860    2.7720   -2.8210 c3        1 MOL      0.064370
     46 C16        -3.1980    2.9740   -3.0110 c         1 MOL      0.633341
     47 O7         -2.4040    2.3770   -2.2580 o         1 MOL     -0.639340
     48 O8         -2.8510    3.8670   -3.8680 o         1 MOL     -0.639340
     49 H21        -3.7390    2.7850   -0.2120 hn        1 MOL      0.114122
     50 H22        -5.5150    4.5210   -1.8160 h1        1 MOL      0.096643
     51 H23        -5.2640    3.1000   -3.6720 hc        1 MOL     -0.024585
     52 H24        -4.8250    1.7110   -2.6150 hc        1 MOL     -0.024585
     53 N5         -6.6080    2.2140    0.1860 n         1 MOL     -0.345375
     54 C17        -7.5840    1.1890    0.5270 c3        1 MOL     -0.000801
     55 C18        -7.7840   -0.0060   -0.4480 c         1 MOL      0.357654
     56 O9         -8.8520   -0.5420   -0.6190 o         1 MOL     -0.557224
     57 H25        -5.8630    2.4170    0.8370 hn        1 MOL      0.242331
     58 H26        -8.5140    1.7220    0.7290 h1        1 MOL      0.056895
     59 H27        -7.3340    0.7330    1.4890 h1        1 MOL      0.056895
     60 N6         -6.7220   -0.4210   -1.0560 n         1 MOL      0.003008
     61 C19        -6.7840   -1.3970   -2.1700 c3        1 MOL     -0.212638
     62 C20        -6.8380   -2.8050   -1.4200 c         1 MOL      0.441782
     63 O10        -7.1860   -3.7950   -2.0960 o         1 MOL     -0.536139
     64 C21        -5.5850   -1.2850   -3.1020 c3        1 MOL     -0.212286
     65 C22        -4.1760   -1.2050   -2.5260 c         1 MOL      0.582382
     66 O11        -3.8220   -1.7000   -1.3870 o         1 MOL     -0.681828
     67 O12        -3.2780   -0.6230   -3.1590 o         1 MOL     -0.681828
     68 H28        -5.8420   -0.2600   -0.5740 hn        1 MOL      0.238919
     69 H29        -7.6960   -1.3260   -2.7620 h1        1 MOL      0.167478
     70 H30        -5.6950   -0.4610   -3.8050 hc        1 MOL      0.100951
     71 H31        -5.7020   -2.1700   -3.7260 hc        1 MOL      0.100951
     72 N7         -6.5090   -2.8590   -0.1150 n         1 MOL     -0.158224
     73 C23        -6.5670   -3.9420    0.8250 c3        1 MOL     -0.088280
     74 C24        -5.2300   -4.6430    0.8090 c         1 MOL      0.581882
     75 O13        -5.1800   -5.8280    0.9890 o         1 MOL     -0.587737
     76 H32        -6.2030   -1.9880    0.3070 hn        1 MOL      0.208088
     77 H33        -7.2560   -4.7700    0.6400 h1        1 MOL      0.068055
     78 H34        -6.7070   -3.6000    1.8520 h1        1 MOL      0.068055
     79 N8         -4.1310   -3.9960    0.5200 n         1 MOL     -0.304262
     80 C25        -2.7380   -4.5940    0.3240 c3        1 MOL     -0.157072
     81 C26        -1.6390   -3.5570    0.6710 c         1 MOL      0.568016
     82 O14        -1.8790   -2.3170    0.4910 o         1 MOL     -0.580284
     83 C27        -2.5690   -5.0490   -1.1180 c3        1 MOL      0.406206
     84 C28        -3.3220   -6.3340   -1.4290 c3        1 MOL     -0.401788
     85 O15        -2.9870   -4.0820   -2.0490 oh        1 MOL     -0.605491
     86 H35        -4.2710   -3.0120    0.3050 hn        1 MOL      0.173099
     87 H36        -2.6720   -5.4490    0.9890 h1        1 MOL      0.121523
     88 H37        -1.5160   -5.2330   -1.3240 h1        1 MOL     -0.007522
     89 H38        -3.5040   -3.4630   -1.5260 ho        1 MOL      0.426289
     90 H39        -4.4130   -6.2430   -1.4110 hc        1 MOL      0.106527
     91 H40        -2.9710   -6.7300   -2.3830 hc        1 MOL      0.106527
     92 H41        -2.9870   -7.0730   -0.7120 hc        1 MOL      0.106527
     93 N9         -0.4390   -3.9680    1.1420 n         1 MOL     -0.602020
     94 C29         0.6820   -3.1280    1.4790 c3        1 MOL      0.078585
     95 C30         1.8910   -3.6670    0.6580 c         1 MOL      0.436799
     96 O16         2.1330   -4.8380    0.7630 o         1 MOL     -0.517140
     97 C31         0.8820   -3.1590    2.9560 c3        1 MOL      0.177595
     98 C32        -0.0820   -2.1480    3.5510 c3        1 MOL      0.043268
     99 C33         2.2850   -2.9430    3.4330 c3        1 MOL     -0.227279
    100 C34         0.0530   -1.7450    5.0600 c3        1 MOL     -0.067388
    101 H42        -0.3560   -4.9290    1.4410 hn        1 MOL      0.317210
    102 H43         0.4370   -2.1040    1.1890 h1        1 MOL     -0.000283
    103 H44         0.5910   -4.1540    3.3150 hc        1 MOL     -0.007915
    104 H45        -1.0910   -2.5560    3.4590 hc        1 MOL      0.028245
    105 H46         0.0500   -1.1780    3.0760 hc        1 MOL      0.028245
    106 H47         2.2300   -3.2280    4.4880 hc        1 MOL      0.041786
    107 H48         2.9840   -3.7000    3.0690 hc        1 MOL      0.041786
    108 H49         2.6670   -1.9370    3.3010 hc        1 MOL      0.041786
    109 H50        -0.5690   -0.8540    5.1140 hc        1 MOL     -0.000661
    110 H51        -0.2900   -2.5430    5.7140 hc        1 MOL     -0.000661
    111 H52         1.0480   -1.4350    5.3540 hc        1 MOL     -0.000661
    112 N10         2.5250   -2.7620   -0.0640 n         1 MOL     -0.159467
    113 C35         3.6490   -3.0620   -0.8960 c3        1 MOL     -0.013241
    114 C36         4.9700   -2.8050   -0.2270 c         1 MOL      0.406305
    115 O17         5.0140   -2.4150    0.9430 o         1 MOL     -0.404201
    116 C37         3.6410   -2.1620   -2.1600 c3        1 MOL      0.039587
    117 C38         2.2880   -2.0650   -2.7700 c3        1 MOL     -0.357188
    118 O18         4.0510   -0.8340   -2.0600 oh        1 MOL     -0.440662
    119 H53         2.1050   -1.8530   -0.1760 hn        1 MOL      0.359151
    120 H54         3.6890   -4.1370   -1.0760 h1        1 MOL      0.083783
    121 H55         4.3660   -2.5170   -2.9000 h1        1 MOL      0.038179
    122 H56         3.7230   -0.3940   -2.8490 ho        1 MOL      0.360915
    123 H57         2.5030   -1.7610   -3.7900 hc        1 MOL      0.093834
    124 H58         1.8380   -3.0500   -2.8500 hc        1 MOL      0.093834
    125 H59         1.5890   -1.3860   -2.2780 hc        1 MOL      0.093834
    126 N11         6.1460   -2.8740   -0.8890 n         1 MOL     -0.343960
    127 C39         7.5150   -2.4530   -0.4950 c3        1 MOL     -0.155537
    128 C40         7.5090   -0.9980    0.0790 c         1 MOL      0.475066
    129 O19         7.9670   -0.8790    1.1920 o         1 MOL     -0.495660
    130 C41         8.4670   -2.7340   -1.6670 c3        1 MOL      0.245156
    131 C42         8.7320   -4.2230   -1.7930 c3        1 MOL     -0.402363
    132 O20         8.0450   -2.3370   -2.9330 oh        1 MOL     -0.626296
    133 H60         5.9390   -3.2720   -1.7890 hn        1 MOL      0.258410
    134 H61         7.7580   -3.1180    0.3350 h1        1 MOL      0.169888
    135 H62         9.3700   -2.1650   -1.4810 h1        1 MOL      0.042974
    136 H63         8.7590   -2.4200   -3.5740 ho        1 MOL      0.397988
    137 H64         7.8150   -4.7480   -2.0510 hc        1 MOL      0.123663
    138 H65         9.2770   -4.4130   -2.7180 hc        1 MOL      0.123663
    139 H66         9.3120   -4.6790   -0.9980 hc        1 MOL      0.123663
    140 N12         6.8650   -0.0730   -0.5680 n         1 MOL     -0.279995
    141 C43         6.9370    1.3560   -0.2090 c3        1 MOL      0.039448
    142 C44         6.1580    1.6140    1.0780 c         1 MOL      0.301929
    143 O21         6.6010    2.4030    1.8810 o         1 MOL     -0.503309
    144 C45         6.3620    2.3310   -1.3030 c3        1 MOL     -0.074964
    145 C46         7.2790    2.2920   -2.5350 c3        1 MOL      0.233231
    146 C47         6.6640    3.0250   -3.7660 c3        1 MOL     -0.025826
    147 C48         7.7260    3.0680   -4.8950 c3        1 MOL     -0.203790
    148 N13         8.1460    1.7280   -5.3090 n4        1 MOL     -0.099426
    149 H67         6.3160   -0.4300   -1.3420 hn        1 MOL      0.198550
    150 H68         7.9990    1.5700   -0.0550 h1        1 MOL      0.102694
    151 H69         6.3060    3.3140   -0.8400 hc        1 MOL      0.019806
    152 H70         5.4110    1.8560   -1.5310 hc        1 MOL      0.019806
    153 H71         7.3200    1.2500   -2.8540 hc        1 MOL     -0.072210
    154 H72         8.2780    2.6230   -2.2450 hc        1 MOL     -0.072210
    155 H73         6.2650    3.9760   -3.4160 hc        1 MOL      0.033739
    156 H74         5.7540    2.5520   -4.1360 hc        1 MOL      0.033739
    157 H75         8.6430    3.5100   -4.5290 hx        1 MOL      0.146661
    158 H76         7.2340    3.6940   -5.6490 hx        1 MOL      0.146661
    159 H77         7.3910    1.1440   -5.6480 hn        1 MOL      0.225042
    160 H78         8.8750    1.7440   -6.0000 hn        1 MOL      0.225042
    161 H79         8.4170    1.2320   -4.4600 hn        1 MOL      0.225042
    162 N14         4.9830    1.0560    1.2840 n         1 MOL     -0.012569
    163 C49         4.0660    1.2850    2.4170 c3        1 MOL     -0.262229
    164 C50         4.5390    0.3870    3.6020 c         1 MOL      0.546843
    165 O22         4.5490    0.8250    4.7400 o         1 MOL     -0.570636
    166 C51         2.7080    0.8590    1.7900 c3        1 MOL      0.378368
    167 C52         2.2150    1.7920    0.6480 c3        1 MOL     -0.389764
    168 C53         0.8600    1.1270    0.0900 c         1 MOL      0.888915
    169 O23         0.7760   -0.0300   -0.3150 o         1 MOL     -0.813892
    170 O24        -0.1310    1.8820   -0.1740 o         1 MOL     -0.813892
    171 H80         4.6180    0.5540    0.4880 hn        1 MOL      0.137223
    172 H81         3.9860    2.3560    2.6260 h1        1 MOL      0.145102
    173 H82         1.8450    0.9590    2.4510 hc        1 MOL     -0.066075
    174 H83         2.7490   -0.1830    1.4710 hc        1 MOL     -0.066075
    175 H84         2.8740    1.9120   -0.2110 hc        1 MOL      0.030110
    176 H85         2.0350    2.8140    0.9540 hc        1 MOL      0.030110
    177 N15         5.2220   -0.6960    3.3650 n         1 MOL     -0.003029
    178 C54         5.9810   -1.4260    4.4290 c3        1 MOL     -0.480281
    179 H86         6.7350   -0.7640    4.8560 h1        1 MOL      0.161567
    180 H87         5.2930   -1.7470    5.2110 h1        1 MOL      0.161567
    181 H88         6.4690   -2.2990    3.9940 h1        1 MOL      0.161567
    182 H89         5.3490   -1.0240    2.4160 hn        1 MOL      0.088997
    183 Ca1        -1.7350    0.0630   -1.1150 Ca        1 MOL      1.750368
    184 O25         0.0370    0.3400   -3.2760 oh        1 MOL     -0.766963
    185 H90         0.9830    0.4050   -3.1290 ho        1 MOL      0.381508
    186 H91        -0.1640    1.0410   -3.8970 ho        1 MOL      0.381508
    187 O26        -0.9600   -2.3320   -2.2070 oh        1 MOL     -0.766963
    188 H92        -1.6370   -3.0120   -2.2060 ho        1 MOL      0.381508
    189 H93        -0.5380   -2.4120   -3.0580 ho        1 MOL      0.381508
@<TRIPOS>BOND
     1    1    2 1   
     2    1    4 1   
     3    1    5 1   
     4    1    6 1   
     5    2    3 2   
     6    2    7 1   
     7    7    8 1   
     8    7   15 1   
     9    8    9 1   
    10    8   11 1   
    11    8   16 1   
    12    9   10 2   
    13    9   19 1   
    14   11   12 1   
    15   11   17 1   
    16   11   18 1   
    17   12   13 1   
    18   12   14 1   
    19   19   20 1   
    20   19   28 1   
    21   20   21 1   
    22   20   23 1   
    23   20   29 1   
    24   21   22 2   
    25   21   41 1   
    26   23   24 1   
    27   23   30 1   
    28   23   31 1   
    29   24   25 1   
    30   24   32 1   
    31   24   33 1   
    32   25   26 1   
    33   25   34 1   
    34   25   35 1   
    35   26   27 1   
    36   26   36 1   
    37   26   37 1   
    38   27   38 1   
    39   27   39 1   
    40   27   40 1   
    41   41   42 1   
    42   41   49 1   
    43   42   43 1   
    44   42   45 1   
    45   42   50 1   
    46   43   44 2   
    47   43   53 1   
    48   45   46 1   
    49   45   51 1   
    50   45   52 1   
    51   46   47 1   
    52   46   48 1   
    53   53   54 1   
    54   53   57 1   
    55   54   55 1   
    56   54   58 1   
    57   54   59 1   
    58   55   56 2   
    59   55   60 1   
    60   60   61 1   
    61   60   68 1   
    62   61   62 1   
    63   61   64 1   
    64   61   69 1   
    65   62   63 2   
    66   62   72 1   
    67   64   65 1   
    68   64   70 1   
    69   64   71 1   
    70   65   66 1   
    71   65   67 1   
    72   72   73 1   
    73   72   76 1   
    74   73   74 1   
    75   73   77 1   
    76   73   78 1   
    77   74   75 2   
    78   74   79 1   
    79   79   80 1   
    80   79   86 1   
    81   80   81 1   
    82   80   83 1   
    83   80   87 1   
    84   81   82 2   
    85   81   93 1   
    86   83   84 1   
    87   83   85 1   
    88   83   88 1   
    89   84   90 1   
    90   84   91 1   
    91   84   92 1   
    92   85   89 1   
    93   93   94 1   
    94   93  101 1   
    95   94   95 1   
    96   94   97 1   
    97   94  102 1   
    98   95   96 2   
    99   95  112 1   
   100   97   98 1   
   101   97   99 1   
   102   97  103 1   
   103   98  100 1   
   104   98  104 1   
   105   98  105 1   
   106   99  106 1   
   107   99  107 1   
   108   99  108 1   
   109  100  109 1   
   110  100  110 1   
   111  100  111 1   
   112  112  113 1   
   113  112  119 1   
   114  113  114 1   
   115  113  116 1   
   116  113  120 1   
   117  114  115 2   
   118  114  126 1   
   119  116  117 1   
   120  116  118 1   
   121  116  121 1   
   122  117  123 1   
   123  117  124 1   
   124  117  125 1   
   125  118  122 1   
   126  126  127 1   
   127  126  133 1   
   128  127  128 1   
   129  127  130 1   
   130  127  134 1   
   131  128  129 2   
   132  128  140 1   
   133  130  131 1   
   134  130  132 1   
   135  130  135 1   
   136  131  137 1   
   137  131  138 1   
   138  131  139 1   
   139  132  136 1   
   140  140  141 1   
   141  140  149 1   
   142  141  142 1   
   143  141  144 1   
   144  141  150 1   
   145  142  143 2   
   146  142  162 1   
   147  144  145 1   
   148  144  151 1   
   149  144  152 1   
   150  145  146 1   
   151  145  153 1   
   152  145  154 1   
   153  146  147 1   
   154  146  155 1   
   155  146  156 1   
   156  147  148 1   
   157  147  157 1   
   158  147  158 1   
   159  148  159 1   
   160  148  160 1   
   161  148  161 1   
   162  162  163 1   
   163  162  171 1   
   164  163  164 1   
   165  163  166 1   
   166  163  172 1   
   167  164  165 2   
   168  164  177 1   
   169  166  167 1   
   170  166  173 1   
   171  166  174 1   
   172  167  168 1   
   173  167  175 1   
   174  167  176 1   
   175  168  169 1   
   176  168  170 1   
   177  177  178 1   
   178  177  182 1   
   179  178  179 1   
   180  178  180 1   
   181  178  181 1   
   182  184  185 1   
   183  184  186 1   
   184  187  188 1   
   185  187  189 1   
@<TRIPOS>SUBSTRUCTURE
     1 MOL         1 TEMP              0 ****  ****    0 ROOT
