@<TRIPOS>MOLECULE
MOL
  186   183     1     0     0
SMALL
resp


@<TRIPOS>ATOM
      1 C1         -0.5190    1.4580    6.3180 c3        1 MOL     -0.195064
      2 C2         -0.8780    1.4130    4.8270 c         1 MOL      0.834619
      3 O1         -0.0580    1.5220    3.9250 o         1 MOL     -0.633616
      4 H1         -1.0390    0.6550    6.8400 hc        1 MOL      0.034979
      5 H2          0.5570    1.3310    6.4370 hc        1 MOL      0.034979
      6 H3         -0.8210    2.4190    6.7360 hc        1 MOL      0.034979
      7 N1         -2.1470    1.2760    4.5480 n         1 MOL     -0.753414
      8 C3         -2.7590    1.5440    3.2530 c3        1 MOL      0.446593
      9 C4         -2.9070    3.0190    2.9230 c         1 MOL      0.428282
     10 O2         -3.5340    3.7610    3.7570 o         1 MOL     -0.572838
     11 C5         -4.0940    0.7630    3.1520 c3        1 MOL     -0.360554
     12 C6         -4.6800    0.6620    1.7440 c         1 MOL      0.812581
     13 O3         -5.9040    0.3470    1.6000 o         1 MOL     -0.652688
     14 O4         -3.9850    1.0960    0.7820 o         1 MOL     -0.652688
     15 H4         -2.7970    1.0550    5.2830 hn        1 MOL      0.334805
     16 H5         -2.0730    1.1070    2.5220 h1        1 MOL     -0.053544
     17 H6         -4.7840    1.1490    3.9000 hc        1 MOL      0.068468
     18 H7         -3.9280   -0.2920    3.3730 hc        1 MOL      0.068468
     19 N2         -2.1990    3.5420    1.8770 n         1 MOL     -0.207599
     20 C7         -2.2340    4.9560    1.4610 c3        1 MOL     -0.143557
     21 C8         -3.3690    5.1970    0.4880 c         1 MOL      0.585740
     22 O5         -3.8710    6.3270    0.3430 o         1 MOL     -0.591116
     23 C9         -0.8580    5.5450    1.0070 c3        1 MOL      0.519986
     24 C10         0.0980    5.6110    2.2370 c3        1 MOL     -0.093403
     25 C11        -0.9210    6.8430    0.2450 c3        1 MOL     -0.377164
     26 C12         1.5860    5.9500    1.9780 c3        1 MOL     -0.078575
     27 H8         -1.7940    2.9000    1.2140 hn        1 MOL      0.093712
     28 H9         -2.4840    5.6070    2.2930 h1        1 MOL      0.035440
     29 H10        -0.4200    4.8960    0.2530 hc        1 MOL     -0.088581
     30 H11         0.0390    4.6380    2.7280 hc        1 MOL      0.006479
     31 H12        -0.2710    6.3770    2.9230 hc        1 MOL      0.006479
     32 H13         0.0700    7.2560    0.0820 hc        1 MOL      0.069081
     33 H14        -1.4080    6.5980   -0.6940 hc        1 MOL      0.069081
     34 H15        -1.5240    7.5820    0.7840 hc        1 MOL      0.069081
     35 H16         2.2010    5.8040    2.8650 hc        1 MOL      0.015138
     36 H17         2.1520    5.3560    1.2520 hc        1 MOL      0.015138
     37 H18         1.6730    6.9620    1.5850 hc        1 MOL      0.015138
     38 N3         -3.6610    4.2370   -0.3900 n         1 MOL     -0.415649
     39 C13        -4.3880    4.4640   -1.6300 c3        1 MOL     -0.128300
     40 C14        -5.6650    3.5490   -1.7890 c         1 MOL      0.410082
     41 O6         -6.3630    3.7120   -2.8330 o         1 MOL     -0.535896
     42 C15        -3.5510    4.2690   -2.8880 c3        1 MOL     -0.032178
     43 C16        -2.7970    2.9330   -2.9660 c         1 MOL      0.739900
     44 O7         -1.8830    2.7670   -3.8550 o         1 MOL     -0.720141
     45 O8         -3.0700    2.0400   -2.1420 o         1 MOL     -0.720141
     46 H19        -3.1240    3.3820   -0.3300 hn        1 MOL      0.296522
     47 H20        -4.6560    5.5230   -1.6470 h1        1 MOL      0.134098
     48 H21        -2.7820    5.0240   -2.7340 hc        1 MOL      0.027856
     49 H22        -4.0000    4.5020   -3.8470 hc        1 MOL      0.027856
     50 N4         -5.9940    2.6610   -0.8410 n         1 MOL      0.015574
     51 C17        -7.3340    2.1310   -0.7970 c3        1 MOL     -0.288489
     52 C18        -7.6470    0.8800   -1.6120 c         1 MOL      0.696690
     53 O9         -8.4170    0.9110   -2.6060 o         1 MOL     -0.579955
     54 H23        -5.2260    2.2690   -0.3130 hn        1 MOL      0.036326
     55 H24        -7.9700    2.9460   -1.1460 h1        1 MOL      0.077601
     56 H25        -7.5850    2.0630    0.2600 h1        1 MOL      0.077601
     57 N5         -7.0650   -0.2320   -1.1130 n         1 MOL     -0.494130
     58 C19        -7.3030   -1.5660   -1.5830 c3        1 MOL      0.013497
     59 C20        -7.2970   -2.5820   -0.4110 c         1 MOL      0.559175
     60 O10        -7.3950   -3.7690   -0.6900 o         1 MOL     -0.568653
     61 C21        -6.3100   -1.9590   -2.6770 c3        1 MOL     -0.026541
     62 C22        -4.8880   -1.6950   -2.2640 c         1 MOL      0.703848
     63 O11        -4.5490   -1.5340   -1.0310 o         1 MOL     -0.735581
     64 O12        -4.0050   -1.5550   -3.1820 o         1 MOL     -0.735581
     65 H26        -6.4410   -0.1580   -0.3180 hn        1 MOL      0.286533
     66 H27        -8.2890   -1.6620   -2.0390 h1        1 MOL      0.054828
     67 H28        -6.5810   -1.3900   -3.5650 hc        1 MOL      0.021238
     68 H29        -6.2940   -3.0250   -2.8800 hc        1 MOL      0.021238
     69 N6         -7.2180   -2.0750    0.8600 n         1 MOL     -0.450781
     70 C23        -7.0150   -2.9450    1.9950 c3        1 MOL      0.071955
     71 C24        -5.7130   -3.7980    1.9380 c         1 MOL      0.361795
     72 O13        -5.5840   -4.7670    2.7320 o         1 MOL     -0.576787
     73 H30        -6.9730   -1.1110    1.0320 hn        1 MOL      0.250407
     74 H31        -7.8650   -3.5550    2.3020 h1        1 MOL      0.052559
     75 H32        -6.8120   -2.2820    2.8400 h1        1 MOL      0.052559
     76 N7         -4.7300   -3.4000    1.0960 n         1 MOL     -0.052636
     77 C25        -3.3920   -4.0370    0.9720 c3        1 MOL     -0.021975
     78 C26        -2.1920   -3.0420    1.1140 c         1 MOL      0.557981
     79 O14        -2.4270   -1.8540    0.8730 o         1 MOL     -0.588720
     80 C27        -3.5170   -4.7380   -0.3370 c3        1 MOL      0.201710
     81 C28        -4.4460   -5.9220   -0.4740 c3        1 MOL     -0.191809
     82 C29        -4.7120   -6.2780   -1.9170 c         1 MOL      0.548175
     83 N8         -5.6380   -5.5930   -2.6400 n         1 MOL     -0.710058
     84 O15        -3.9730   -7.1730   -2.3840 o         1 MOL     -0.570730
     85 H33        -4.8040   -2.5870    0.4950 hn        1 MOL      0.040985
     86 H34        -3.4240   -4.7630    1.7780 h1        1 MOL      0.036590
     87 H35        -2.5280   -5.0910   -0.6080 hc        1 MOL     -0.019122
     88 H36        -3.7140   -4.0370   -1.1440 hc        1 MOL     -0.019122
     89 H37        -5.4250   -5.8060   -0.0240 hc        1 MOL      0.050672
     90 H38        -4.0060   -6.7230    0.1160 hc        1 MOL      0.050672
     91 H39        -6.2190   -4.9160   -2.1660 hn        1 MOL      0.346027
     92 H40        -5.9140   -5.9320   -3.5520 hn        1 MOL      0.346027
     93 N9         -1.0050   -3.6030    1.3210 n         1 MOL     -0.507050
     94 C30         0.2610   -2.9300    1.6350 c3        1 MOL      0.007644
     95 C31         1.3670   -3.5410    0.8530 c         1 MOL      0.568910
     96 O16         1.8120   -4.6550    1.1120 o         1 MOL     -0.560668
     97 C32         0.6040   -2.8730    3.0970 c3        1 MOL      0.236458
     98 C33         1.9580   -2.2630    3.3570 c3        1 MOL     -0.289493
     99 C34        -0.4350   -1.9990    3.8210 c3        1 MOL     -0.289493
    100 H41        -1.0520   -4.5860    1.5570 hn        1 MOL      0.299594
    101 H42         0.0820   -1.9190    1.2630 h1        1 MOL      0.077146
    102 H43         0.5120   -3.8880    3.4990 hc        1 MOL     -0.024434
    103 H44         2.1450   -2.2440    4.4290 hc        1 MOL      0.063319
    104 H45         2.7020   -2.8990    2.8780 hc        1 MOL      0.063319
    105 H46         2.0480   -1.3060    2.8420 hc        1 MOL      0.063319
    106 H47        -1.4190   -2.4580    3.7720 hc        1 MOL      0.063319
    107 H48        -0.1890   -1.8900    4.8820 hc        1 MOL      0.063319
    108 H49        -0.4370   -1.0030    3.3870 hc        1 MOL      0.063319
    109 N10         1.7950   -2.8130   -0.2210 n         1 MOL     -0.482210
    110 C35         3.0030   -3.0600   -1.0130 c3        1 MOL      0.155525
    111 C36         4.2290   -2.3170   -0.3350 c         1 MOL      0.519002
    112 O17         4.0500   -1.4350    0.4670 o         1 MOL     -0.331591
    113 C37         2.8270   -2.5120   -2.4800 c3        1 MOL     -0.437704
    114 C38         3.1990   -1.1030   -2.6570 c         1 MOL      0.703599
    115 N11         2.6170   -0.1420   -1.9430 n         1 MOL     -0.794174
    116 O18         4.1950   -0.8300   -3.3190 o         1 MOL     -0.595462
    117 H50         1.1390   -2.1070   -0.5330 hn        1 MOL      0.328182
    118 H51         3.1720   -4.1290   -1.0290 h1        1 MOL      0.051046
    119 H52         1.7690   -2.5710   -2.7270 hc        1 MOL      0.143163
    120 H53         3.4010   -3.1570   -3.1480 hc        1 MOL      0.143163
    121 H54         1.7770   -0.2290   -1.3980 hn        1 MOL      0.397822
    122 H55         2.9400    0.8050   -2.1220 hn        1 MOL      0.397822
    123 N12         5.4350   -2.5240   -0.8790 n         1 MOL     -0.720915
    124 C39         6.6960   -1.9670   -0.4270 c3        1 MOL      0.382972
    125 C40         6.9400   -0.4520   -0.4270 c         1 MOL      0.524696
    126 O19         7.5330    0.0040    0.5520 o         1 MOL     -0.504423
    127 C41         7.7710   -2.6440   -1.1410 c3        1 MOL     -0.202029
    128 C42         9.1630   -2.5580   -0.5170 ca        1 MOL     -0.066759
    129 C43         9.3150   -3.2150    0.6690 ca        1 MOL     -0.023136
    130 C44        10.1930   -1.7830   -1.1580 ca        1 MOL     -0.023136
    131 C45        10.5320   -2.9050    1.3610 ca        1 MOL     -0.432973
    132 C46        11.4190   -1.6410   -0.5240 ca        1 MOL     -0.432973
    133 C47        11.5370   -2.0770    0.8530 ca        1 MOL      0.521144
    134 O20        12.6670   -1.7800    1.5180 oh        1 MOL     -0.545915
    135 H56         5.4910   -3.0440   -1.7400 hn        1 MOL      0.326993
    136 H57         6.7140   -2.2500    0.6250 h1        1 MOL      0.051930
    137 H58         7.7740   -2.3080   -2.1770 hc        1 MOL      0.061535
    138 H59         7.5210   -3.7010   -1.1790 hc        1 MOL      0.061535
    139 H60         8.4120   -3.6350    1.0880 ha        1 MOL      0.115604
    140 H61         9.9510   -1.3820   -2.1300 ha        1 MOL      0.115604
    141 H62        10.6350   -3.0920    2.4190 ha        1 MOL      0.173745
    142 H63        12.2030   -1.0780   -1.0220 ha        1 MOL      0.173745
    143 H64        13.2470   -1.3940    0.8670 ho        1 MOL      0.376368
    144 N13         6.4660    0.2340   -1.4710 n         1 MOL     -0.472856
    145 C48         6.4040    1.6950   -1.4400 c3        1 MOL      0.117857
    146 C49         5.6210    2.2340   -0.1880 c         1 MOL      0.329277
    147 O21         5.9400    3.2300    0.4100 o         1 MOL     -0.521489
    148 C50         5.6450    2.2260   -2.7450 c3        1 MOL     -0.139765
    149 C51         6.3270    2.0870   -4.1040 c3        1 MOL     -0.306587
    150 C52         6.0010    3.2360   -5.0660 c         1 MOL      0.771307
    151 O22         6.5790    4.3290   -4.9930 o         1 MOL     -0.751835
    152 O23         5.2890    2.9900   -6.0560 o         1 MOL     -0.751835
    153 H65         6.0440   -0.2120   -2.2600 hn        1 MOL      0.308591
    154 H66         7.3980    2.1270   -1.3600 h1        1 MOL      0.072986
    155 H67         5.3340    3.2370   -2.4690 hc        1 MOL      0.086843
    156 H68         4.6820    1.7190   -2.8320 hc        1 MOL      0.086843
    157 H69         6.1520    1.1470   -4.6190 hc        1 MOL      0.064422
    158 H70         7.3690    2.0660   -3.7960 hc        1 MOL      0.064422
    159 N14         4.5700    1.5400    0.2310 n         1 MOL      0.138804
    160 C53         3.7630    1.9140    1.4660 c3        1 MOL     -0.235885
    161 C54         4.4970    1.5520    2.8090 c         1 MOL      0.453745
    162 O24         4.3200    2.0760    3.9000 o         1 MOL     -0.521084
    163 C55         2.3680    1.2280    1.4090 c3        1 MOL      0.111468
    164 C56         1.3090    1.9800    0.5060 c3        1 MOL      0.118783
    165 C57         0.1300    1.1500    0.0610 c         1 MOL      0.675648
    166 O25        -1.0260    1.5670    0.2970 o         1 MOL     -0.624559
    167 O26         0.2950   -0.0130   -0.4110 o         1 MOL     -0.624559
    168 H71         4.2740    0.7460   -0.3270 hn        1 MOL     -0.242252
    169 H72         3.6100    2.9950    1.5070 h1        1 MOL      0.151553
    170 H73         1.9410    1.0700    2.4010 hc        1 MOL      0.025788
    171 H74         2.3810    0.2510    0.9130 hc        1 MOL      0.025788
    172 H75         1.8190    2.2370   -0.4230 hc        1 MOL     -0.061573
    173 H76         0.9250    2.9110    0.9170 hc        1 MOL     -0.061573
    174 N15         5.3540    0.4420    2.6450 n         1 MOL     -0.023906
    175 C58         6.0650   -0.1690    3.8040 c3        1 MOL     -0.269027
    176 H77         5.3600   -0.7540    4.3950 h1        1 MOL      0.092330
    177 H78         6.8620   -0.8190    3.4420 h1        1 MOL      0.092330
    178 H79         6.4920    0.6180    4.4250 h1        1 MOL      0.092330
    179 H80         5.5380    0.1170    1.7130 hn        1 MOL     -0.011147
    180 Ca1        -2.4050   -0.0980   -1.0560 Ca        1 MOL      1.717580
    181 O27        -0.8620    0.5310   -3.0200 oh        1 MOL     -0.919315
    182 H81        -0.8080   -0.0440   -3.7700 ho        1 MOL      0.424774
    183 H82        -1.1710    1.3660   -3.3760 ho        1 MOL      0.424774
    184 O28        -1.5470   -2.3850   -2.1850 oh        1 MOL     -0.919315
    185 H83        -1.1460   -2.2590   -3.0360 ho        1 MOL      0.424774
    186 H84        -2.1040   -3.1600   -2.2890 ho        1 MOL      0.424774
@<TRIPOS>BOND
     1    1    2 1   
     2    1    4 1   
     3    1    5 1   
     4    1    6 1   
     5    2    3 2   
     6    2    7 1   
     7    7    8 1   
     8    7   15 1   
     9    8    9 1   
    10    8   11 1   
    11    8   16 1   
    12    9   10 2   
    13    9   19 1   
    14   11   12 1   
    15   11   17 1   
    16   11   18 1   
    17   12   13 1   
    18   12   14 1   
    19   19   20 1   
    20   19   27 1   
    21   20   21 1   
    22   20   23 1   
    23   20   28 1   
    24   21   22 2   
    25   21   38 1   
    26   23   24 1   
    27   23   25 1   
    28   23   29 1   
    29   24   26 1   
    30   24   30 1   
    31   24   31 1   
    32   25   32 1   
    33   25   33 1   
    34   25   34 1   
    35   26   35 1   
    36   26   36 1   
    37   26   37 1   
    38   38   39 1   
    39   38   46 1   
    40   39   40 1   
    41   39   42 1   
    42   39   47 1   
    43   40   41 2   
    44   40   50 1   
    45   42   43 1   
    46   42   48 1   
    47   42   49 1   
    48   43   44 1   
    49   43   45 1   
    50   50   51 1   
    51   50   54 1   
    52   51   52 1   
    53   51   55 1   
    54   51   56 1   
    55   52   53 2   
    56   52   57 1   
    57   57   58 1   
    58   57   65 1   
    59   58   59 1   
    60   58   61 1   
    61   58   66 1   
    62   59   60 2   
    63   59   69 1   
    64   61   62 1   
    65   61   67 1   
    66   61   68 1   
    67   62   63 1   
    68   62   64 1   
    69   69   70 1   
    70   69   73 1   
    71   70   71 1   
    72   70   74 1   
    73   70   75 1   
    74   71   72 2   
    75   71   76 1   
    76   76   77 1   
    77   76   85 1   
    78   77   78 1   
    79   77   80 1   
    80   77   86 1   
    81   78   79 2   
    82   78   93 1   
    83   80   81 1   
    84   80   87 1   
    85   80   88 1   
    86   81   82 1   
    87   81   89 1   
    88   81   90 1   
    89   82   83 1   
    90   82   84 2   
    91   83   91 1   
    92   83   92 1   
    93   93   94 1   
    94   93  100 1   
    95   94   95 1   
    96   94   97 1   
    97   94  101 1   
    98   95   96 2   
    99   95  109 1   
   100   97   98 1   
   101   97   99 1   
   102   97  102 1   
   103   98  103 1   
   104   98  104 1   
   105   98  105 1   
   106   99  106 1   
   107   99  107 1   
   108   99  108 1   
   109  109  110 1   
   110  109  117 1   
   111  110  111 1   
   112  110  113 1   
   113  110  118 1   
   114  111  112 2   
   115  111  123 1   
   116  113  114 1   
   117  113  119 1   
   118  113  120 1   
   119  114  115 1   
   120  114  116 2   
   121  115  121 1   
   122  115  122 1   
   123  123  124 1   
   124  123  135 1   
   125  124  125 1   
   126  124  127 1   
   127  124  136 1   
   128  125  126 2   
   129  125  144 1   
   130  127  128 1   
   131  127  137 1   
   132  127  138 1   
   133  128  129 ar  
   134  128  130 ar  
   135  129  131 ar  
   136  129  139 1   
   137  130  132 ar  
   138  130  140 1   
   139  131  133 ar  
   140  131  141 1   
   141  132  133 ar  
   142  132  142 1   
   143  133  134 1   
   144  134  143 1   
   145  144  145 1   
   146  144  153 1   
   147  145  146 1   
   148  145  148 1   
   149  145  154 1   
   150  146  147 2   
   151  146  159 1   
   152  148  149 1   
   153  148  155 1   
   154  148  156 1   
   155  149  150 1   
   156  149  157 1   
   157  149  158 1   
   158  150  151 1   
   159  150  152 1   
   160  159  160 1   
   161  159  168 1   
   162  160  161 1   
   163  160  163 1   
   164  160  169 1   
   165  161  162 2   
   166  161  174 1   
   167  163  164 1   
   168  163  170 1   
   169  163  171 1   
   170  164  165 1   
   171  164  172 1   
   172  164  173 1   
   173  165  166 1   
   174  165  167 1   
   175  174  175 1   
   176  174  179 1   
   177  175  176 1   
   178  175  177 1   
   179  175  178 1   
   180  181  182 1   
   181  181  183 1   
   182  184  185 1   
   183  184  186 1   
@<TRIPOS>SUBSTRUCTURE
     1 MOL         1 TEMP              0 ****  ****    0 ROOT
