@<TRIPOS>MOLECULE
MOL
  175   173     1     0     0
SMALL
resp


@<TRIPOS>ATOM
      1 C1          0.5740   -2.4440    6.4880 c3        1 MOL     -0.480356
      2 C2          0.9160   -2.3660    4.9810 c         1 MOL      0.802829
      3 O1          0.8460   -1.2760    4.4560 o         1 MOL     -0.648695
      4 H1         -0.0700   -1.6060    6.7580 hc        1 MOL      0.121988
      5 H2          0.0560   -3.3810    6.6960 hc        1 MOL      0.121988
      6 H3          1.4920   -2.3980    7.0730 hc        1 MOL      0.121988
      7 N1          1.3270   -3.4560    4.3230 n         1 MOL     -0.666574
      8 C3          1.8270   -3.3620    2.9180 c3        1 MOL      0.166655
      9 C4          1.8580   -4.7030    2.0950 c         1 MOL      0.492989
     10 O2          2.2000   -5.7810    2.5940 o         1 MOL     -0.575787
     11 C5          3.2410   -2.9500    3.0740 c3        1 MOL     -0.175847
     12 C6          3.9700   -2.7280    1.7520 c         1 MOL      0.596058
     13 O3          5.1210   -3.1730    1.6490 o         1 MOL     -0.615355
     14 O4          3.4390   -2.0530    0.8580 o         1 MOL     -0.615355
     15 H4          1.3420   -4.3730    4.7620 hn        1 MOL      0.336432
     16 H5          1.2800   -2.5670    2.4000 h1        1 MOL      0.030492
     17 H6          3.8320   -3.6280    3.6980 hc        1 MOL      0.043569
     18 H7          3.2140   -1.9720    3.5460 hc        1 MOL      0.043569
     19 N2          1.4450   -4.5720    0.8760 n         1 MOL     -0.394224
     20 C7          1.6550   -5.5750   -0.1810 c3        1 MOL      0.345102
     21 C8          2.7960   -5.2970   -1.1700 c         1 MOL      0.365369
     22 O5          3.0680   -6.2210   -1.9300 o         1 MOL     -0.573705
     23 C9          0.2460   -5.5640   -0.9860 c3        1 MOL     -0.355405
     24 H8          1.2090   -3.6290    0.6130 hn        1 MOL      0.187550
     25 H9          1.8020   -6.5490    0.2720 h1        1 MOL      0.011950
     26 H10        -0.5040   -6.1100   -0.4260 hc        1 MOL      0.089483
     27 H11        -0.0410   -4.5190   -1.0910 hc        1 MOL      0.089483
     28 H12         0.3720   -6.1170   -1.9150 hc        1 MOL      0.089483
     29 N3          3.4130   -4.0980   -1.2860 n         1 MOL     -0.239500
     30 C10         4.2620   -3.8500   -2.5170 c3        1 MOL      0.117210
     31 C11         5.5370   -2.9880   -2.2990 c         1 MOL      0.342908
     32 O6          6.2610   -2.8090   -3.2570 o         1 MOL     -0.535596
     33 C12         3.3720   -3.3090   -3.6380 c3        1 MOL     -0.157083
     34 C13         2.6740   -1.9580   -3.2120 c         1 MOL      0.634721
     35 O7          3.0560   -1.3320   -2.1780 o         1 MOL     -0.654020
     36 O8          1.9460   -1.4290   -4.0240 o         1 MOL     -0.654020
     37 H13         3.4080   -3.4220   -0.5320 hn        1 MOL      0.222631
     38 H14         4.6540   -4.8140   -2.8570 h1        1 MOL      0.057117
     39 H15         2.5860   -4.0420   -3.8090 hc        1 MOL      0.037011
     40 H16         4.0370   -3.2350   -4.5030 hc        1 MOL      0.037011
     41 N4          5.7220   -2.4440   -1.0870 n         1 MOL      0.003018
     42 C14         6.8950   -1.6960   -0.7480 c3        1 MOL     -0.172162
     43 C15         7.1080   -0.3020   -1.3110 c         1 MOL      0.518613
     44 O9          8.2320    0.2170   -1.2750 o         1 MOL     -0.616580
     45 H17         5.0010   -2.5470   -0.3860 hn        1 MOL     -0.065228
     46 H18         7.8310   -2.2180   -0.9300 h1        1 MOL      0.086334
     47 H19         6.8410   -1.5880    0.3430 h1        1 MOL      0.086334
     48 N5          6.1160    0.2610   -1.9380 n         1 MOL     -0.258156
     49 C16         6.0910    1.5470   -2.6380 c3        1 MOL      0.106260
     50 C17         6.0950    2.7850   -1.6710 c         1 MOL      0.371400
     51 O10         5.9890    3.9300   -2.1700 o         1 MOL     -0.497864
     52 C18         4.9180    1.5950   -3.6490 c3        1 MOL     -0.414902
     53 C19         3.4960    1.5500   -3.1190 c         1 MOL      0.880061
     54 N6          2.5070    1.4840   -3.9860 n         1 MOL     -0.757954
     55 O11         3.2990    1.6750   -1.9330 o         1 MOL     -0.733444
     56 H20         5.2990   -0.2990   -2.1270 hn        1 MOL      0.230838
     57 H21         7.0570    1.5850   -3.1360 h1        1 MOL      0.078993
     58 H22         5.1640    0.7360   -4.2640 hc        1 MOL      0.103387
     59 H23         5.0150    2.4970   -4.2550 hc        1 MOL      0.103387
     60 H24         2.7090    1.4390   -4.9730 hn        1 MOL      0.353347
     61 H25         1.5500    1.3500   -3.6780 hn        1 MOL      0.353347
     62 N7          6.2060    2.5780   -0.3520 n         1 MOL     -0.203956
     63 C20         6.5340    3.5970    0.6640 c3        1 MOL     -0.183159
     64 C21         5.3820    4.5430    1.0230 c         1 MOL      0.527792
     65 O12         5.5780    5.5300    1.7310 o         1 MOL     -0.570096
     66 H26         6.3560    1.6150   -0.0770 hn        1 MOL      0.221124
     67 H27         7.4460    4.0840    0.3330 h1        1 MOL      0.098773
     68 H28         6.7890    2.9680    1.5080 h1        1 MOL      0.098773
     69 N8          4.2130    4.1820    0.5370 n         1 MOL     -0.277684
     70 C22         2.9130    4.7470    0.9910 c3        1 MOL      0.016633
     71 C23         1.8510    3.6790    1.0560 c         1 MOL      0.492909
     72 O13         2.0400    2.5380    0.6120 o         1 MOL     -0.496200
     73 C24         2.3220    5.8710    0.0770 c3        1 MOL      0.439428
     74 C25         2.9800    7.2320    0.5070 c3        1 MOL     -0.381806
     75 O14         2.7170    5.7950   -1.2510 oh        1 MOL     -0.586236
     76 H29         4.2570    3.3480   -0.0290 hn        1 MOL      0.242871
     77 H30         2.9430    5.1460    2.0090 h1        1 MOL      0.056607
     78 H31         1.2440    5.9970    0.2080 h1        1 MOL     -0.018223
     79 H32         2.2120    5.0730   -1.6210 ho        1 MOL      0.381151
     80 H33         4.0590    7.1350    0.3650 hc        1 MOL      0.086133
     81 H34         2.4440    8.0670    0.0620 hc        1 MOL      0.086133
     82 H35         2.9350    7.2910    1.5960 hc        1 MOL      0.086133
     83 N9          0.7070    3.9310    1.7350 n         1 MOL     -0.500192
     84 C26        -0.4150    3.0110    1.8840 c3        1 MOL     -0.016647
     85 C27        -1.2710    3.1400    0.6210 c         1 MOL      0.482206
     86 O15        -1.5430    4.2390    0.1290 o         1 MOL     -0.581498
     87 C28        -1.1690    3.2960    3.1600 c3        1 MOL      0.220029
     88 C29        -0.4440    2.6890    4.4040 c3        1 MOL      0.078878
     89 C30        -2.6540    3.0230    3.1880 c3        1 MOL     -0.286407
     90 C31        -0.8690    3.3920    5.7070 c3        1 MOL     -0.119241
     91 H36         0.5920    4.8450    2.1480 hn        1 MOL      0.257028
     92 H37        -0.0590    1.9870    1.9950 h1        1 MOL      0.153469
     93 H38        -1.0520    4.3680    3.3200 hc        1 MOL     -0.043124
     94 H39         0.6350    2.8600    4.3350 hc        1 MOL     -0.004796
     95 H40        -0.6000    1.6150    4.4440 hc        1 MOL     -0.004796
     96 H41        -3.0330    3.5930    4.0390 hc        1 MOL      0.065485
     97 H42        -3.1970    3.4520    2.3520 hc        1 MOL      0.065485
     98 H43        -2.7490    1.9370    3.2660 hc        1 MOL      0.065485
     99 H44        -0.4250    4.3810    5.6040 hc        1 MOL      0.012052
    100 H45        -1.9590    3.4800    5.7730 hc        1 MOL      0.012052
    101 H46        -0.5370    2.8450    6.5890 hc        1 MOL      0.012052
    102 N10        -1.7560    1.9880    0.1040 n         1 MOL     -0.025620
    103 C32        -2.6560    1.8720   -1.0310 c3        1 MOL      0.009737
    104 C33        -4.1410    1.6410   -0.6820 c         1 MOL      0.343623
    105 O16        -4.4620    1.2100    0.4620 o         1 MOL     -0.382488
    106 C34        -2.1770    0.8080   -2.0660 c3        1 MOL     -0.164742
    107 C35        -0.7160    1.0090   -2.4740 c         1 MOL      0.702012
    108 O17         0.1840    0.6100   -1.6770 o         1 MOL     -0.664952
    109 O18        -0.5330    1.6200   -3.5610 o         1 MOL     -0.664952
    110 H47        -1.3900    1.0990    0.4150 hn        1 MOL     -0.094394
    111 H48        -2.6490    2.8250   -1.5440 h1        1 MOL      0.064514
    112 H49        -2.8270    0.7890   -2.9380 hc        1 MOL      0.048562
    113 H50        -2.2880   -0.2050   -1.6600 hc        1 MOL      0.048562
    114 N11        -5.0400    1.6320   -1.6830 n         1 MOL     -0.465912
    115 C36        -6.4920    1.2890   -1.4050 c3        1 MOL      0.276236
    116 C37        -6.6540   -0.1730   -1.0020 c         1 MOL      0.427491
    117 O19        -7.3990   -0.3870   -0.0780 o         1 MOL     -0.522450
    118 C38        -7.3060    1.6180   -2.7240 c3        1 MOL     -0.218726
    119 C39        -8.7820    1.4490   -2.5600 ca        1 MOL      0.087366
    120 C40        -9.5610    2.6000   -2.2700 ca        1 MOL     -0.133734
    121 C41        -9.4220    0.2210   -2.6770 ca        1 MOL     -0.133734
    122 C42       -11.0000    2.5150   -1.9670 ca        1 MOL     -0.167854
    123 C43       -10.8180    0.1630   -2.5610 ca        1 MOL     -0.167854
    124 C44       -11.6190    1.2290   -2.0690 ca        1 MOL     -0.057041
    125 H51        -4.8330    2.1270   -2.5370 hn        1 MOL      0.297607
    126 H52        -6.9590    1.8920   -0.6270 h1        1 MOL      0.047898
    127 H53        -6.9280    0.9240   -3.4740 hc        1 MOL      0.058150
    128 H54        -7.1770    2.6700   -2.9780 hc        1 MOL      0.058150
    129 H55        -9.0250    3.5160   -2.0650 ha        1 MOL      0.114510
    130 H56        -8.8380   -0.6360   -2.9760 ha        1 MOL      0.114510
    131 H57       -11.5590    3.4030   -1.7190 ha        1 MOL      0.121349
    132 H58       -11.3310   -0.7660   -2.7450 ha        1 MOL      0.121349
    133 H59       -12.6660    1.0430   -1.9010 ha        1 MOL      0.098195
    134 N12        -5.9930   -1.2270   -1.5590 n         1 MOL     -0.100842
    135 C45        -6.2390   -2.6340   -1.0080 c3        1 MOL     -0.039175
    136 C46        -5.5770   -2.6940    0.3860 c         1 MOL      0.320605
    137 O20        -6.0110   -3.3990    1.2530 o         1 MOL     -0.497453
    138 C47        -5.5130   -3.4170   -2.0900 c3        1 MOL     -0.143119
    139 C48        -5.1980   -2.5330   -3.2880 c3        1 MOL      0.007039
    140 C49        -5.0810   -1.1370   -2.6850 c3        1 MOL      0.013097
    141 H60        -7.2830   -2.8890   -0.8460 h1        1 MOL      0.107142
    142 H61        -4.5020   -3.6380   -1.7410 hc        1 MOL      0.073878
    143 H62        -5.9540   -4.3610   -2.4170 hc        1 MOL      0.073878
    144 H63        -4.3010   -2.8460   -3.8190 hc        1 MOL      0.014980
    145 H64        -5.9620   -2.5140   -4.0660 hc        1 MOL      0.014980
    146 H65        -4.0810   -0.9270   -2.2840 h1        1 MOL      0.033293
    147 H66        -5.4080   -0.3370   -3.3470 h1        1 MOL      0.033293
    148 N13        -4.6260   -1.8030    0.7680 n         1 MOL      0.015857
    149 C50        -4.0630   -1.8070    2.0780 c3        1 MOL     -0.017277
    150 C51        -4.9030   -1.0630    3.1090 c         1 MOL      0.394845
    151 O21        -5.0630   -1.6270    4.2370 o         1 MOL     -0.572626
    152 C52        -2.6560   -1.1570    1.9130 c3        1 MOL     -0.406541
    153 C53        -1.7270   -2.1140    1.2420 c3        1 MOL      0.319966
    154 C54        -0.3570   -1.4010    0.9050 c         1 MOL      0.643048
    155 O22        -0.0840   -0.1710    1.2310 o         1 MOL     -0.713315
    156 O23         0.4540   -2.0110    0.1650 o         1 MOL     -0.713315
    157 H67        -4.2920   -1.1830    0.0440 hn        1 MOL      0.083711
    158 H68        -3.9560   -2.8120    2.4910 h1        1 MOL      0.089526
    159 H69        -2.2670   -0.8720    2.8930 hc        1 MOL      0.135467
    160 H70        -2.6930   -0.2250    1.3460 hc        1 MOL      0.135467
    161 H71        -2.2250   -2.5420    0.3810 hc        1 MOL     -0.051515
    162 H72        -1.5980   -3.0680    1.7380 hc        1 MOL     -0.051515
    163 N14        -5.5650    0.0360    2.7560 n         1 MOL     -0.023043
    164 C55        -6.6800    0.7160    3.4530 c3        1 MOL     -0.153373
    165 H73        -6.2790    1.3520    4.2420 h1        1 MOL      0.066593
    166 H74        -7.2360    1.3260    2.7410 h1        1 MOL      0.066593
    167 H75        -7.3430   -0.0300    3.8910 h1        1 MOL      0.066593
    168 H76        -5.2340    0.4130    1.8850 hn        1 MOL      0.040855
    169 Ca1         2.1490   -0.0250   -0.1550 Ca        1 MOL      1.722501
    170 O24         4.5010    0.4240    1.4010 oh        1 MOL     -0.889980
    171 H77         5.4390    0.2880    1.5730 ho        1 MOL      0.426697
    172 H78         4.0760    0.2520    2.2410 ho        1 MOL      0.426697
    173 O25         2.1960    0.2230    2.6530 oh        1 MOL     -0.889980
    174 H79         2.6860    0.1660    3.4780 ho        1 MOL      0.426697
    175 H80         1.3720   -0.2190    2.8430 ho        1 MOL      0.426697
@<TRIPOS>BOND
     1    1    2 1   
     2    1    4 1   
     3    1    5 1   
     4    1    6 1   
     5    2    3 2   
     6    2    7 1   
     7    7    8 1   
     8    7   15 1   
     9    8    9 1   
    10    8   11 1   
    11    8   16 1   
    12    9   10 2   
    13    9   19 1   
    14   11   12 1   
    15   11   17 1   
    16   11   18 1   
    17   12   13 1   
    18   12   14 1   
    19   19   20 1   
    20   19   24 1   
    21   20   21 1   
    22   20   23 1   
    23   20   25 1   
    24   21   22 2   
    25   21   29 1   
    26   23   26 1   
    27   23   27 1   
    28   23   28 1   
    29   29   30 1   
    30   29   37 1   
    31   30   31 1   
    32   30   33 1   
    33   30   38 1   
    34   31   32 2   
    35   31   41 1   
    36   33   34 1   
    37   33   39 1   
    38   33   40 1   
    39   34   35 1   
    40   34   36 1   
    41   41   42 1   
    42   41   45 1   
    43   42   43 1   
    44   42   46 1   
    45   42   47 1   
    46   43   44 2   
    47   43   48 1   
    48   48   49 1   
    49   48   56 1   
    50   49   50 1   
    51   49   52 1   
    52   49   57 1   
    53   50   51 2   
    54   50   62 1   
    55   52   53 1   
    56   52   58 1   
    57   52   59 1   
    58   53   54 1   
    59   53   55 2   
    60   54   60 1   
    61   54   61 1   
    62   62   63 1   
    63   62   66 1   
    64   63   64 1   
    65   63   67 1   
    66   63   68 1   
    67   64   65 2   
    68   64   69 1   
    69   69   70 1   
    70   69   76 1   
    71   70   71 1   
    72   70   73 1   
    73   70   77 1   
    74   71   72 2   
    75   71   83 1   
    76   73   74 1   
    77   73   75 1   
    78   73   78 1   
    79   74   80 1   
    80   74   81 1   
    81   74   82 1   
    82   75   79 1   
    83   83   84 1   
    84   83   91 1   
    85   84   85 1   
    86   84   87 1   
    87   84   92 1   
    88   85   86 2   
    89   85  102 1   
    90   87   88 1   
    91   87   89 1   
    92   87   93 1   
    93   88   90 1   
    94   88   94 1   
    95   88   95 1   
    96   89   96 1   
    97   89   97 1   
    98   89   98 1   
    99   90   99 1   
   100   90  100 1   
   101   90  101 1   
   102  102  103 1   
   103  102  110 1   
   104  103  104 1   
   105  103  106 1   
   106  103  111 1   
   107  104  105 2   
   108  104  114 1   
   109  106  107 1   
   110  106  112 1   
   111  106  113 1   
   112  107  108 1   
   113  107  109 1   
   114  114  115 1   
   115  114  125 1   
   116  115  116 1   
   117  115  118 1   
   118  115  126 1   
   119  116  117 2   
   120  116  134 1   
   121  118  119 1   
   122  118  127 1   
   123  118  128 1   
   124  119  120 ar  
   125  119  121 ar  
   126  120  122 ar  
   127  120  129 1   
   128  121  123 ar  
   129  121  130 1   
   130  122  124 ar  
   131  122  131 1   
   132  123  124 ar  
   133  123  132 1   
   134  124  133 1   
   135  134  135 1   
   136  134  140 1   
   137  135  136 1   
   138  135  138 1   
   139  135  141 1   
   140  136  137 2   
   141  136  148 1   
   142  138  139 1   
   143  138  142 1   
   144  138  143 1   
   145  139  140 1   
   146  139  144 1   
   147  139  145 1   
   148  140  146 1   
   149  140  147 1   
   150  148  149 1   
   151  148  157 1   
   152  149  150 1   
   153  149  152 1   
   154  149  158 1   
   155  150  151 2   
   156  150  163 1   
   157  152  153 1   
   158  152  159 1   
   159  152  160 1   
   160  153  154 1   
   161  153  161 1   
   162  153  162 1   
   163  154  155 1   
   164  154  156 1   
   165  163  164 1   
   166  163  168 1   
   167  164  165 1   
   168  164  166 1   
   169  164  167 1   
   170  170  171 1   
   171  170  172 1   
   172  173  174 1   
   173  173  175 1   
@<TRIPOS>SUBSTRUCTURE
     1 MOL         1 TEMP              0 ****  ****    0 ROOT
