@<TRIPOS>MOLECULE
MOL
  189   185     1     0     0
SMALL
resp


@<TRIPOS>ATOM
      1 C1          0.3580   -1.6450    6.6090 c3        1 MOL     -0.333311
      2 C2          0.4980   -1.7010    5.0530 c         1 MOL      0.746183
      3 O1          0.3270   -0.6490    4.3720 o         1 MOL     -0.611113
      4 H1         -0.4000   -2.3600    6.9310 hc        1 MOL      0.087381
      5 H2          1.3130   -1.8970    7.0700 hc        1 MOL      0.087381
      6 H3          0.0610   -0.6410    6.9120 hc        1 MOL      0.087381
      7 N1          0.8420   -2.8640    4.4560 n         1 MOL     -0.630556
      8 C3          1.5900   -3.0500    3.1330 c3        1 MOL      0.183497
      9 C4          1.6680   -4.4500    2.4130 c         1 MOL      0.477287
     10 O2          1.9000   -5.4500    3.0710 o         1 MOL     -0.574412
     11 C5          2.9860   -2.6420    3.3750 c3        1 MOL     -0.099455
     12 C6          3.9230   -2.6300    2.1500 c         1 MOL      0.663872
     13 O3          5.1600   -2.7710    2.2970 o         1 MOL     -0.668571
     14 O4          3.5050   -2.1190    1.0970 o         1 MOL     -0.668571
     15 H4          1.0180   -3.6410    5.0800 hn        1 MOL      0.304376
     16 H5          1.1220   -2.3080    2.4870 h1        1 MOL      0.051076
     17 H6          3.4910   -3.2740    4.1100 hc        1 MOL      0.010620
     18 H7          2.9940   -1.6750    3.8730 hc        1 MOL      0.010620
     19 N2          1.6160   -4.4630    1.0930 n         1 MOL     -0.030500
     20 C7          1.6580   -5.6280    0.2520 c3        1 MOL     -0.223367
     21 C8          2.8290   -5.6890   -0.7880 c         1 MOL      0.493518
     22 O5          3.0660   -6.7010   -1.4430 o         1 MOL     -0.593454
     23 C9          0.2850   -6.0410   -0.3580 c3        1 MOL      0.666085
     24 C10        -0.1800   -5.1770   -1.5340 c3        1 MOL      0.145569
     25 C11        -0.7240   -6.1350    0.7770 c3        1 MOL     -0.358723
     26 C12        -0.8090   -6.0500   -2.5520 c3        1 MOL     -0.415419
     27 H8          1.5930   -3.5880    0.6020 hn        1 MOL     -0.106702
     28 H9          1.8490   -6.4520    0.9410 h1        1 MOL      0.070808
     29 H10         0.4430   -7.0650   -0.6840 hc        1 MOL     -0.168595
     30 H11         0.6780   -4.6840   -2.0090 hc        1 MOL     -0.021556
     31 H12        -0.8190   -4.4290   -1.0620 hc        1 MOL     -0.021556
     32 H13        -0.3360   -6.9230    1.4190 hc        1 MOL      0.052592
     33 H14        -0.7580   -5.1960    1.3350 hc        1 MOL      0.052592
     34 H15        -1.7000   -6.3890    0.3670 hc        1 MOL      0.052592
     35 H16        -1.6510   -6.6030   -2.1360 hc        1 MOL      0.085947
     36 H17        -1.1400   -5.3970   -3.3710 hc        1 MOL      0.085947
     37 H18        -0.0250   -6.6480   -3.0200 hc        1 MOL      0.085947
     38 N3          3.4820   -4.6090   -1.1480 n         1 MOL     -0.348965
     39 C13         4.3690   -4.4100   -2.3080 c3        1 MOL      0.073118
     40 C14         5.7150   -3.6490   -2.0020 c         1 MOL      0.338852
     41 O6          6.6530   -3.8020   -2.7620 o         1 MOL     -0.532552
     42 C15         3.6220   -3.6620   -3.3790 c3        1 MOL     -0.393591
     43 C16         3.0840   -2.2680   -3.0190 c         1 MOL      0.765463
     44 O7          3.3490   -1.6630   -1.9250 o         1 MOL     -0.696117
     45 O8          2.3060   -1.7580   -3.8690 o         1 MOL     -0.696117
     46 H19         3.1310   -3.7310   -0.7820 hn        1 MOL      0.330938
     47 H20         4.5940   -5.3580   -2.7800 h1        1 MOL      0.104709
     48 H21         2.7980   -4.3430   -3.6040 hc        1 MOL      0.119380
     49 H22         4.1940   -3.5170   -4.2980 hc        1 MOL      0.119380
     50 N4          5.7940   -3.0080   -0.8080 n         1 MOL     -0.004370
     51 C17         7.0700   -2.4500   -0.3310 c3        1 MOL     -0.372347
     52 C18         7.4800   -1.0610   -0.9320 c         1 MOL      0.567983
     53 O9          8.6400   -0.7580   -0.8020 o         1 MOL     -0.584088
     54 H23         4.9680   -2.9650   -0.2270 hn        1 MOL      0.019600
     55 H24         7.8430   -3.2000   -0.5060 h1        1 MOL      0.155129
     56 H25         6.9990   -2.1810    0.7240 h1        1 MOL      0.155129
     57 N5          6.5170   -0.2820   -1.4920 n         1 MOL     -0.247890
     58 C19         6.9420    0.9070   -2.2430 c3        1 MOL     -0.150402
     59 C20         7.3850    2.1020   -1.3860 c         1 MOL      0.453166
     60 O10         8.1580    2.9680   -1.8090 o         1 MOL     -0.544143
     61 C21         5.8750    1.2920   -3.2850 c3        1 MOL     -0.107468
     62 C22         4.4540    1.4570   -2.7960 c         1 MOL      0.753011
     63 O11         4.1480    1.3900   -1.5880 o         1 MOL     -0.723561
     64 O12         3.5990    1.7310   -3.6810 o         1 MOL     -0.723561
     65 H26         5.5400   -0.5440   -1.5210 hn        1 MOL      0.256265
     66 H27         7.8220    0.5950   -2.7910 h1        1 MOL      0.115292
     67 H28         5.8540    0.5310   -4.0670 hc        1 MOL      0.042280
     68 H29         6.1920    2.1640   -3.8720 hc        1 MOL      0.042280
     69 N6          6.7910    2.1350   -0.1410 n         1 MOL     -0.126721
     70 C23         7.0590    3.0270    0.9580 c3        1 MOL     -0.200664
     71 C24         5.9480    4.1210    1.1030 c         1 MOL      0.588765
     72 O13         6.1340    5.1490    1.7660 o         1 MOL     -0.602807
     73 H30         6.0910    1.4380    0.0550 hn        1 MOL      0.204567
     74 H31         7.9890    3.5210    0.6610 h1        1 MOL      0.086384
     75 H32         7.2050    2.4450    1.8580 h1        1 MOL      0.086384
     76 N7          4.7410    3.8440    0.5630 n         1 MOL     -0.458231
     77 C25         3.5200    4.6250    0.7180 c3        1 MOL      0.257863
     78 C26         2.3110    3.6430    0.9120 c         1 MOL      0.360444
     79 O14         2.4410    2.4310    0.5200 o         1 MOL     -0.525538
     80 C27         3.2050    5.4990   -0.5260 c3        1 MOL     -0.357037
     81 C28         4.0950    6.7940   -0.4370 c3        1 MOL     -0.151607
     82 C29         3.8380    8.0070   -1.3140 c         1 MOL      0.657390
     83 N8          4.7070    9.0020   -1.3400 n         1 MOL     -0.808446
     84 O15         2.7790    8.1720   -1.8760 o         1 MOL     -0.561619
     85 H33         4.6420    2.9160    0.1940 hn        1 MOL      0.275783
     86 H34         3.5450    5.2600    1.6050 h1        1 MOL     -0.002636
     87 H35         2.1500    5.7470   -0.4440 hc        1 MOL      0.146599
     88 H36         3.4760    4.8900   -1.3930 hc        1 MOL      0.146599
     89 H37         5.0950    6.4480   -0.6660 hc        1 MOL      0.078754
     90 H38         4.1680    7.0460    0.6230 hc        1 MOL      0.078754
     91 H39         5.5830    8.8580   -0.8450 hn        1 MOL      0.359047
     92 H40         4.4320    9.7560   -1.9500 hn        1 MOL      0.359047
     93 N9          1.1980    4.0890    1.5050 n         1 MOL     -0.349485
     94 C30         0.0570    3.2140    1.8230 c3        1 MOL      0.125096
     95 C31        -1.1540    3.4000    0.8770 c         1 MOL      0.392590
     96 O16        -1.6900    4.5060    0.8480 o         1 MOL     -0.578385
     97 C32        -0.4110    3.3990    3.3450 c3        1 MOL      0.115397
     98 C33        -1.2370    2.1840    3.8120 c3        1 MOL     -0.296502
     99 C34         0.7570    3.7830    4.3340 c3        1 MOL     -0.296502
    100 H41         1.1300    5.0610    1.7750 hn        1 MOL      0.287019
    101 H42         0.2950    2.1600    1.6920 h1        1 MOL      0.051608
    102 H43        -1.0830    4.2620    3.3050 hc        1 MOL     -0.012324
    103 H44        -0.5340    1.4270    4.1600 hc        1 MOL      0.074264
    104 H45        -1.7980    2.3520    4.7260 hc        1 MOL      0.074264
    105 H46        -1.9110    1.8120    3.0400 hc        1 MOL      0.074264
    106 H47         0.3720    3.7140    5.3450 hc        1 MOL      0.074264
    107 H48         1.5630    3.0520    4.1940 hc        1 MOL      0.074264
    108 H49         1.0730    4.8150    4.1810 hc        1 MOL      0.074264
    109 N10        -1.5420    2.4490    0.0210 n         1 MOL     -0.081510
    110 C35        -2.5840    2.6010   -0.9480 c3        1 MOL      0.052590
    111 C36        -3.9280    2.1930   -0.2530 c         1 MOL      0.263694
    112 O17        -3.9800    1.6090    0.8100 o         1 MOL     -0.277151
    113 C37        -2.2530    1.6460   -2.1700 c3        1 MOL     -0.213082
    114 C38        -3.2760    1.7010   -3.3050 c         1 MOL      0.648342
    115 N11        -3.7570    2.8970   -3.6620 n         1 MOL     -0.759146
    116 O18        -3.8140    0.7020   -3.7230 o         1 MOL     -0.515678
    117 H50        -1.0520    1.5610    0.0030 hn        1 MOL      0.072256
    118 H51        -2.7350    3.6270   -1.2850 h1        1 MOL      0.045961
    119 H52        -2.2760    0.6260   -1.7890 hc        1 MOL      0.106620
    120 H53        -1.2690    1.9210   -2.5350 hc        1 MOL      0.106620
    121 H54        -3.4980    3.8100   -3.3130 hn        1 MOL      0.340018
    122 H55        -4.2350    2.9150   -4.5530 hn        1 MOL      0.340018
    123 N12        -5.0420    2.3500   -0.9770 n         1 MOL     -0.282997
    124 C39        -6.4050    2.0970   -0.5990 c3        1 MOL      0.090344
    125 C40        -6.6060    0.6220   -0.2000 c         1 MOL      0.692587
    126 O19        -7.3510    0.3010    0.7320 o         1 MOL     -0.569336
    127 C41        -7.2800    2.4430   -1.7740 c3        1 MOL     -0.062725
    128 C42        -8.7620    2.3370   -1.4710 ca        1 MOL     -0.158562
    129 C43        -9.3420    2.8760   -0.3140 ca        1 MOL     -0.021511
    130 C44        -9.5870    1.6260   -2.3180 ca        1 MOL     -0.021511
    131 C45       -10.7470    2.7820   -0.1440 ca        1 MOL     -0.338016
    132 C46       -10.9770    1.5560   -2.1800 ca        1 MOL     -0.338016
    133 C47       -11.5890    2.1200   -1.0650 ca        1 MOL      0.469563
    134 O20       -12.9570    2.0550   -0.9740 oh        1 MOL     -0.601719
    135 H56        -4.9050    2.7490   -1.8970 hn        1 MOL      0.143613
    136 H57        -6.6840    2.7530    0.2320 h1        1 MOL      0.040045
    137 H58        -7.1220    1.8450   -2.6740 hc        1 MOL      0.053084
    138 H59        -7.0480    3.4710   -2.0620 hc        1 MOL      0.053084
    139 H60        -8.7680    3.3470    0.4670 ha        1 MOL      0.109406
    140 H61        -9.1500    1.2850   -3.2420 ha        1 MOL      0.109406
    141 H62       -11.1420    3.1980    0.7740 ha        1 MOL      0.141123
    142 H63       -11.5930    1.1680   -2.9780 ha        1 MOL      0.141123
    143 H64       -13.4310    1.4780   -1.5810 ho        1 MOL      0.409756
    144 N13        -6.0620   -0.2740   -0.9560 n         1 MOL     -0.407554
    145 C48        -5.8900   -1.7170   -0.6380 c3        1 MOL     -0.030244
    146 C49        -5.1820   -2.0260    0.6740 c         1 MOL      0.472763
    147 O21        -5.4850   -3.0840    1.2880 o         1 MOL     -0.532122
    148 C50        -5.0700   -2.3370   -1.7460 c3        1 MOL      0.110758
    149 C51        -5.3400   -3.8480   -2.0340 c3        1 MOL     -0.177118
    150 C52        -6.8150   -4.0780   -2.3600 c         1 MOL      0.669279
    151 O22        -7.4930   -4.7830   -1.5290 o         1 MOL     -0.733293
    152 O23        -7.2780   -3.5950   -3.4240 o         1 MOL     -0.733293
    153 H65        -5.5530    0.0570   -1.7660 hn        1 MOL      0.244102
    154 H66        -6.8350   -2.2590   -0.5570 h1        1 MOL      0.123961
    155 H67        -4.0120   -2.2130   -1.5390 hc        1 MOL     -0.017698
    156 H68        -5.2650   -1.7140   -2.6220 hc        1 MOL     -0.017698
    157 H69        -5.0420   -4.3660   -1.1270 hc        1 MOL      0.020217
    158 H70        -4.7320   -4.1830   -2.8870 hc        1 MOL      0.020217
    159 N14        -4.4180   -1.0840    1.2290 n         1 MOL     -0.383122
    160 C53        -3.5320   -1.2830    2.4100 c3        1 MOL     -0.054472
    161 C54        -3.9090   -0.4100    3.6080 c         1 MOL      0.463820
    162 O24        -3.4010   -0.5850    4.6580 o         1 MOL     -0.541919
    163 C55        -2.1200   -0.9910    1.9290 c3        1 MOL      0.096061
    164 C56        -1.6460   -1.7520    0.6410 c3        1 MOL     -0.012855
    165 C57        -0.2620   -1.1960    0.2860 c         1 MOL      0.555100
    166 O25         0.7280   -1.9150    0.2860 o         1 MOL     -0.605239
    167 O26        -0.1110    0.0150    0.0180 o         1 MOL     -0.605239
    168 H71        -4.3880   -0.1980    0.7460 hn        1 MOL      0.200707
    169 H72        -3.5430   -2.3160    2.7670 h1        1 MOL      0.094724
    170 H73        -1.4650   -1.2210    2.7640 hc        1 MOL      0.015321
    171 H74        -2.0400    0.0570    1.6600 hc        1 MOL      0.015321
    172 H75        -2.2980   -1.4770   -0.1910 hc        1 MOL      0.008505
    173 H76        -1.5550   -2.8320    0.7520 hc        1 MOL      0.008505
    174 N15        -4.8700    0.4630    3.3520 n         1 MOL     -0.017723
    175 C58        -5.5460    1.3530    4.2640 c3        1 MOL     -0.232932
    176 H77        -6.2790    0.7920    4.8440 h1        1 MOL      0.081198
    177 H78        -4.8170    1.8040    4.9390 h1        1 MOL      0.081198
    178 H79        -6.0510    2.1360    3.7000 h1        1 MOL      0.081198
    179 H80        -5.0930    0.6700    2.3870 hn        1 MOL     -0.007770
    180 Ca1         2.5490   -0.1410   -0.0990 Ca        1 MOL      1.699703
    181 O27         2.3590    0.3040    2.5040 oh        1 MOL     -0.987282
    182 H81         2.7610    0.9820    3.0520 ho        1 MOL      0.463967
    183 H82         1.5290    0.1170    2.9380 ho        1 MOL      0.463967
    184 O28         1.6250    0.4770   -2.6400 oh        1 MOL     -0.987282
    185 H83         2.2710    1.1150   -2.9510 ho        1 MOL      0.463967
    186 H84         1.7980   -0.3100   -3.1620 ho        1 MOL      0.463967
    187 O29         5.0360    0.1080    1.0170 oh        1 MOL     -0.987282
    188 H85         4.9500   -0.8020    1.2960 ho        1 MOL      0.463967
    189 H86         5.1570    0.5980    1.8310 ho        1 MOL      0.463967
@<TRIPOS>BOND
     1    1    2 1   
     2    1    4 1   
     3    1    5 1   
     4    1    6 1   
     5    2    3 2   
     6    2    7 1   
     7    7    8 1   
     8    7   15 1   
     9    8    9 1   
    10    8   11 1   
    11    8   16 1   
    12    9   10 2   
    13    9   19 1   
    14   11   12 1   
    15   11   17 1   
    16   11   18 1   
    17   12   13 1   
    18   12   14 1   
    19   19   20 1   
    20   19   27 1   
    21   20   21 1   
    22   20   23 1   
    23   20   28 1   
    24   21   22 2   
    25   21   38 1   
    26   23   24 1   
    27   23   25 1   
    28   23   29 1   
    29   24   26 1   
    30   24   30 1   
    31   24   31 1   
    32   25   32 1   
    33   25   33 1   
    34   25   34 1   
    35   26   35 1   
    36   26   36 1   
    37   26   37 1   
    38   38   39 1   
    39   38   46 1   
    40   39   40 1   
    41   39   42 1   
    42   39   47 1   
    43   40   41 2   
    44   40   50 1   
    45   42   43 1   
    46   42   48 1   
    47   42   49 1   
    48   43   44 1   
    49   43   45 1   
    50   50   51 1   
    51   50   54 1   
    52   51   52 1   
    53   51   55 1   
    54   51   56 1   
    55   52   53 2   
    56   52   57 1   
    57   57   58 1   
    58   57   65 1   
    59   58   59 1   
    60   58   61 1   
    61   58   66 1   
    62   59   60 2   
    63   59   69 1   
    64   61   62 1   
    65   61   67 1   
    66   61   68 1   
    67   62   63 1   
    68   62   64 1   
    69   69   70 1   
    70   69   73 1   
    71   70   71 1   
    72   70   74 1   
    73   70   75 1   
    74   71   72 2   
    75   71   76 1   
    76   76   77 1   
    77   76   85 1   
    78   77   78 1   
    79   77   80 1   
    80   77   86 1   
    81   78   79 2   
    82   78   93 1   
    83   80   81 1   
    84   80   87 1   
    85   80   88 1   
    86   81   82 1   
    87   81   89 1   
    88   81   90 1   
    89   82   83 1   
    90   82   84 2   
    91   83   91 1   
    92   83   92 1   
    93   93   94 1   
    94   93  100 1   
    95   94   95 1   
    96   94   97 1   
    97   94  101 1   
    98   95   96 2   
    99   95  109 1   
   100   97   98 1   
   101   97   99 1   
   102   97  102 1   
   103   98  103 1   
   104   98  104 1   
   105   98  105 1   
   106   99  106 1   
   107   99  107 1   
   108   99  108 1   
   109  109  110 1   
   110  109  117 1   
   111  110  111 1   
   112  110  113 1   
   113  110  118 1   
   114  111  112 2   
   115  111  123 1   
   116  113  114 1   
   117  113  119 1   
   118  113  120 1   
   119  114  115 1   
   120  114  116 2   
   121  115  121 1   
   122  115  122 1   
   123  123  124 1   
   124  123  135 1   
   125  124  125 1   
   126  124  127 1   
   127  124  136 1   
   128  125  126 2   
   129  125  144 1   
   130  127  128 1   
   131  127  137 1   
   132  127  138 1   
   133  128  129 ar  
   134  128  130 ar  
   135  129  131 ar  
   136  129  139 1   
   137  130  132 ar  
   138  130  140 1   
   139  131  133 ar  
   140  131  141 1   
   141  132  133 ar  
   142  132  142 1   
   143  133  134 1   
   144  134  143 1   
   145  144  145 1   
   146  144  153 1   
   147  145  146 1   
   148  145  148 1   
   149  145  154 1   
   150  146  147 2   
   151  146  159 1   
   152  148  149 1   
   153  148  155 1   
   154  148  156 1   
   155  149  150 1   
   156  149  157 1   
   157  149  158 1   
   158  150  151 1   
   159  150  152 1   
   160  159  160 1   
   161  159  168 1   
   162  160  161 1   
   163  160  163 1   
   164  160  169 1   
   165  161  162 2   
   166  161  174 1   
   167  163  164 1   
   168  163  170 1   
   169  163  171 1   
   170  164  165 1   
   171  164  172 1   
   172  164  173 1   
   173  165  166 1   
   174  165  167 1   
   175  174  175 1   
   176  174  179 1   
   177  175  176 1   
   178  175  177 1   
   179  175  178 1   
   180  181  182 1   
   181  181  183 1   
   182  184  185 1   
   183  184  186 1   
   184  187  188 1   
   185  187  189 1   
@<TRIPOS>SUBSTRUCTURE
     1 MOL         1 TEMP              0 ****  ****    0 ROOT
